%chk=m4_l1_FINAL.chk
%nprocshared=48
%mem=120GB
# SP PBE1PBE/def2svp empiricaldispersion=GD3BJ scrf=(solvent=dmso)

m4_l1

8 1
 Pd                 7.79030000   -6.24460000   -0.00180000
 Pd                -6.24270000   -7.77910000   -0.00370000
 Pd                -7.78930000    6.24580000   -0.00590000
 Pd                 6.25170000    7.77760000    0.00170000
 C                  5.61400000   -6.87020000   -1.81620000
 N                  6.79800000   -7.33790000   -1.39100000
 C                  7.18160000   -8.57080000   -1.75490000
 C                  6.37170000   -9.39520000   -2.51960000
 C                  5.10530000   -8.95010000   -2.92840000
 C                  4.15400000   -9.81980000   -3.64360000
 C                  4.60180000  -10.83060000   -4.52260000
 C                  3.71740000  -11.67620000   -5.18590000
 C                  2.36410000  -11.49230000   -4.93360000
 O                  1.34430000  -12.22430000   -5.45980000
 C                  0.19070000  -11.72800000   -4.93480000
 C                 -1.09120000  -12.19800000   -5.18830000
 C                 -2.13710000  -11.56220000   -4.52580000
 C                 -1.91760000  -10.47880000   -3.64660000
 C                 -3.03440000   -9.83520000   -2.93150000
 C                 -2.97980000   -8.47550000   -2.58640000
 C                 -3.98430000   -7.91560000   -1.82060000
 N                 -5.03770000   -8.62990000   -1.39460000
 C                 -5.14340000   -9.91690000   -1.75770000
 C                 -4.17310000  -10.54540000   -2.52180000
 C                 -0.61290000  -10.02120000   -3.42000000
 C                  0.44570000  -10.65470000   -4.06250000
 C                  1.88390000  -10.49890000   -4.06160000
 C                  2.78130000   -9.65320000   -3.41810000
 C                  4.75580000   -7.63530000   -2.58210000
 H                  5.33790000   -5.85530000   -1.52140000
 H                  8.15530000   -8.91550000   -1.40140000
 H                  6.72150000  -10.40210000   -2.74920000
 H                  5.67130000  -10.94380000   -4.71020000
 H                  4.07020000  -12.44770000   -5.87110000
 H                 -1.26960000  -13.02730000   -5.87370000
 H                 -3.15720000  -11.90270000   -4.71380000
 H                 -2.15560000   -7.83980000   -2.90950000
 H                 -3.93680000   -6.86470000   -1.52630000
 H                 -6.01870000  -10.46510000   -1.40390000
 H                 -4.29480000  -11.60460000   -2.75010000
 H                 -0.41970000   -9.20380000   -2.72300000
 H                  2.41670000   -8.89670000   -2.72120000
 H                  3.81280000   -7.19460000   -2.90470000
 C                  5.60320000   -6.87250000    1.78910000
 N                  6.79920000   -7.33350000    1.39180000
 C                  7.19180000   -8.55400000    1.78650000
 C                  6.37920000   -9.37270000    2.55510000
 C                  5.10200000   -8.93420000    2.93700000
 C                  4.15000000   -9.79740000    3.65910000
 C                  4.59550000  -10.78710000    4.56280000
 C                  3.71010000  -11.62170000    5.23870000
 C                  2.35770000  -11.44780000    4.97510000
 O                  1.33650000  -12.16790000    5.51510000
 C                  0.18410000  -11.68340000    4.97640000
 C                 -1.09940000  -12.14280000    5.24170000
 C                 -2.14390000  -11.51780000    4.56670000
 C                 -1.92160000  -10.45640000    3.66170000
 C                 -3.03660000   -9.81880000    2.93850000
 C                 -2.96460000   -8.46980000    2.55610000
 C                 -3.96720000   -7.91590000    1.78420000
 N                 -5.03660000   -8.62390000    1.38920000
 C                 -5.15930000   -9.89870000    1.78840000
 C                 -4.19020000  -10.52180000    2.55890000
 C                 -0.61500000  -10.01150000    3.42090000
 C                  0.44180000  -10.63240000    4.07820000
 C                  1.87980000  -10.47640000    4.07740000
 C                  2.77810000   -9.64280000    3.41980000
 C                  4.74280000   -7.63070000    2.55880000
 H                  5.32060000   -5.86820000    1.46640000
 H                  8.17540000   -8.89330000    1.45580000
 H                  6.73740000  -10.37060000    2.80970000
 H                  5.66410000  -10.89150000    4.76060000
 H                  4.06160000  -12.37590000    5.94360000
 H                 -1.28030000  -12.95450000    5.94710000
 H                 -3.16500000  -11.84870000    4.76570000
 H                 -2.12770000   -7.83840000    2.85390000
 H                 -3.90640000   -6.87530000    1.45840000
 H                 -6.04760000  -10.44150000    1.45960000
 H                 -4.32610000  -11.57260000    2.81640000
 H                 -0.41910000   -9.21250000    2.70380000
 H                  2.41420000   -8.90320000    2.70430000
 H                  3.79060000   -7.19380000    2.85910000
 C                  7.93240000   -3.98100000   -1.80450000
 N                  8.64260000   -5.04390000   -1.39560000
 C                  9.92330000   -5.15960000   -1.77780000
 C                 10.55000000   -4.18940000   -2.54400000
 C                  9.84460000   -3.04160000   -2.93620000
 C                 10.48510000   -1.92490000   -3.65440000
 C                 11.55470000   -2.14510000   -4.55010000
 C                 12.18240000   -1.09940000   -5.22070000
 C                 11.71780000    0.18300000   -4.95950000
 O                 12.20420000    1.33630000   -5.49450000
 C                 11.47850000    2.35620000   -4.95960000
 C                 11.65290000    3.70890000   -5.22120000
 C                 10.81330000    4.59310000   -4.55010000
 C                  9.81830000    4.14580000   -3.65300000
 C                  8.95120000    5.09640000   -2.93390000
 C                  7.64500000    4.73700000   -2.56530000
 C                  6.88270000    5.59510000   -1.79680000
 N                  7.34310000    6.78890000   -1.39180000
 C                  8.56650000    7.18160000   -1.77740000
 C                  9.38890000    6.37140000   -2.54440000
 C                  9.66270000    2.77360000   -3.41620000
 C                 10.50130000    1.87650000   -4.06910000
 C                 10.65910000    0.43870000   -4.06960000
 C                 10.03500000   -0.61940000   -3.41750000
 C                  8.49010000   -2.97710000   -2.57220000
 H                  6.88650000   -3.92550000   -1.49420000
 H                 10.46760000   -6.04300000   -1.43830000
 H                 11.60470000   -4.31880000   -2.78850000
 H                 11.88970000   -3.16560000   -4.74570000
 H                 13.00030000   -1.27850000   -5.91950000
 H                 12.41170000    4.06140000   -5.92060000
 H                 10.91810000    5.66200000   -4.74590000
 H                  7.20970000    3.78620000   -2.87210000
 H                  5.87600000    5.31200000   -1.48200000
 H                  8.90450000    8.16340000   -1.44020000
 H                 10.38880000    6.72910000   -2.79180000
 H                  8.91880000    2.40930000   -2.70550000
 H                  9.22920000   -0.42550000   -2.70730000
 H                  7.85710000   -2.14540000   -2.88100000
 C                  7.93920000   -3.99210000    1.81790000
 N                  8.65160000   -5.04520000    1.38750000
 C                  9.94060000   -5.15100000    1.74380000
 C                 10.57240000   -4.18040000    2.50510000
 C                  9.86400000   -3.04190000    2.91840000
 C                 10.50970000   -1.92470000    3.63060000
 C                 11.59340000   -2.14330000    4.50950000
 C                 12.22850000   -1.09690000    5.17210000
 C                 11.75710000    0.18460000    4.91880000
 O                 12.25020000    1.33860000    5.44610000
 C                 11.51640000    2.35750000    4.92080000
 C                 11.69490000    3.71070000    5.17750000
 C                 10.84680000    4.59390000    4.51590000
 C                  9.83980000    4.14530000    3.63280000
 C                  8.96640000    5.09520000    2.92050000
 C                  7.65730000    4.73590000    2.56190000
 C                  6.88900000    5.59420000    1.79950000
 N                  7.34710000    6.78760000    1.39030000
 C                  8.57310000    7.18040000    1.76730000
 C                  9.40110000    6.37040000    2.52810000
 C                  9.67940000    2.77270000    3.40200000
 C                 10.52610000    1.87650000    4.04560000
 C                 10.68460000    0.43870000    4.04510000
 C                 10.05200000   -0.62030000    3.40260000
 C                  8.50260000   -2.98720000    2.58040000
 H                  6.88650000   -3.94480000    1.53030000
 H                 10.48740000   -6.02610000    1.38660000
 H                 11.63300000   -4.30070000    2.72770000
 H                 11.93450000   -3.16320000    4.69780000
 H                 13.05760000   -1.27460000    5.85770000
 H                 12.46360000    4.06420000    5.86550000
 H                 10.95510000    5.66310000    4.70800000
 H                  7.22430000    3.78480000    2.87150000
 H                  5.87920000    5.31170000    1.49380000
 H                  8.90810000    8.16260000    1.42840000
 H                 10.40260000    6.72860000    2.76800000
 H                  8.92630000    2.40720000    2.70180000
 H                  9.23410000   -0.42820000    2.70590000
 H                  7.86870000   -2.16220000    2.90560000
 C                 -5.60940000    6.87450000   -1.81170000
 N                 -6.79780000    7.33920000   -1.39540000
 C                 -7.18280000    8.57020000   -1.76410000
 C                 -6.36990000    9.39590000   -2.52440000
 C                 -5.09930000    8.95390000   -2.92370000
 C                 -4.14650000    9.82450000   -3.63590000
 C                 -4.59310000   10.83100000   -4.52030000
 C                 -3.70810000   11.67590000   -5.18350000
 C                 -2.35540000   11.49540000   -4.92590000
 O                 -1.33540000   12.22610000   -5.45320000
 C                 -0.18240000   11.73300000   -4.92430000
 C                  1.09960000   12.20180000   -5.17980000
 C                  2.14540000   11.56830000   -4.51490000
 C                  1.92550000   10.48920000   -3.63060000
 C                  3.04280000    9.84520000   -2.91690000
 C                  2.98380000    8.48680000   -2.56720000
 C                  3.99010000    7.92510000   -1.80550000
 N                  5.04930000    8.63570000   -1.38720000
 C                  5.15900000    9.92140000   -1.75430000
 C                  4.18680000   10.55160000   -2.51500000
 C                  0.62050000   10.03390000   -3.40070000
 C                 -0.43800000   10.66410000   -4.04670000
 C                 -1.87610000   10.50660000   -4.04800000
 C                 -2.77430000    9.66180000   -3.40410000
 C                 -4.74800000    7.64080000   -2.57280000
 H                 -5.33330000    5.86060000   -1.51330000
 H                 -8.16070000    8.91120000   -1.41860000
 H                 -6.72130000   10.40110000   -2.75860000
 H                 -5.66210000   10.94090000   -4.71260000
 H                 -4.05980000   12.44370000   -5.87340000
 H                  1.27810000   13.02760000   -5.86920000
 H                  3.16560000   11.90700000   -4.70530000
 H                  2.15500000    7.85350000   -2.88340000
 H                  3.93900000    6.87490000   -1.50900000
 H                  6.03970000   10.46630000   -1.40770000
 H                  4.31100000   11.60950000   -2.74790000
 H                  0.42750000    9.22010000   -2.69950000
 H                 -2.41070000    8.90820000   -2.70340000
 H                 -3.80140000    7.20290000   -2.88840000
 C                 -5.60130000    6.87040000    1.78810000
 N                 -6.79480000    7.33330000    1.38580000
 C                 -7.18520000    8.55650000    1.77420000
 C                 -6.37280000    9.37630000    2.54150000
 C                 -5.09780000    8.93580000    2.92860000
 C                 -4.14570000    9.80010000    3.64910000
 C                 -4.59220000   10.79520000    4.54640000
 C                 -3.70750000   11.63290000    5.21910000
 C                 -2.35490000   11.45670000    4.95850000
 O                 -1.33460000   12.18040000    5.49510000
 C                 -0.18160000   11.69310000    4.96060000
 C                  1.10100000   12.15650000    5.22300000
 C                  2.14640000   11.52870000    4.55210000
 C                  1.92600000   10.46010000    3.65540000
 C                  3.04300000    9.82140000    2.93620000
 C                  2.98080000    8.46740000    2.56990000
 C                  3.98670000    7.91280000    1.80260000
 N                  5.04890000    8.62550000    1.39570000
 C                  5.16230000    9.90580000    1.77970000
 C                  4.19000000   10.52930000    2.54590000
 C                  0.62040000   10.01090000    3.41760000
 C                 -0.43760000   10.63550000    4.06950000
 C                 -1.87580000   10.47930000    4.06780000
 C                 -2.77340000    9.64220000    3.41370000
 C                 -4.74090000    7.62990000    2.55670000
 H                 -5.32100000    5.86370000    1.47100000
 H                 -8.16720000    8.89610000    1.43940000
 H                 -6.72890000   10.37620000    2.79080000
 H                 -5.66110000   10.90170000    4.74130000
 H                 -4.05960000   12.39170000    5.91870000
 H                  1.28040000   12.97380000    5.92230000
 H                  3.16690000   11.86360000    4.74790000
 H                  2.14980000    7.83240000    2.87710000
 H                  3.93390000    6.86710000    1.49110000
 H                  6.04600000   10.45180000    1.44250000
 H                  4.31680000   11.58390000    2.79180000
 H                  0.42640000    9.20610000    2.70630000
 H                 -2.40910000    8.89830000    2.70300000
 H                 -3.79060000    7.19230000    2.86150000
 C                 -6.88570000   -5.60200000   -1.80470000
 N                 -7.34240000   -6.79560000   -1.39450000
 C                 -8.56950000   -7.18830000   -1.76810000
 C                 -9.39970000   -6.37790000   -2.52640000
 C                 -8.96610000   -5.10260000   -2.91970000
 C                 -9.84060000   -4.15210000   -3.63000000
 C                -10.84430000   -4.60010000   -4.51690000
 C                -11.69010000   -3.71630000   -5.18080000
 C                -11.51300000   -2.36350000   -4.92220000
 O                -12.24300000   -1.34410000   -5.45200000
 C                -11.75170000   -0.19030000   -4.92280000
 C                -12.21810000    1.09170000   -5.18240000
 C                -11.58450000    2.13830000   -4.51890000
 C                -10.50780000    1.91940000   -3.63140000
 C                 -9.86170000    3.03760000   -2.92080000
 C                 -8.50550000    2.97300000   -2.56360000
 C                 -7.94230000    3.98000000   -1.80420000
 N                 -8.64860000    5.04590000   -1.39620000
 C                 -9.93130000    5.16180000   -1.77200000
 C                -10.56330000    4.18850000   -2.53000000
 C                -10.05570000    0.61410000   -3.39640000
 C                -10.68560000   -0.44500000   -4.04160000
 C                -10.52770000   -1.88300000   -4.04110000
 C                 -9.68290000   -2.77970000   -3.39550000
 C                 -7.65590000   -4.74350000   -2.56490000
 H                 -5.87510000   -5.31880000   -1.50180000
 H                 -8.90450000   -8.17010000   -1.42770000
 H                -10.40210000   -6.73510000   -2.76350000
 H                -10.95110000   -5.66910000   -4.71080000
 H                -12.45550000   -4.06930000   -5.87280000
 H                -13.04180000    1.26990000   -5.87450000
 H                -11.92090000    3.15850000   -4.71360000
 H                 -7.87510000    2.13890000   -2.87160000
 H                 -6.89480000    3.92450000   -1.49960000
 H                -10.47250000    6.04810000   -1.43410000
 H                -11.61890000    4.31810000   -2.76980000
 H                 -9.24400000    0.42130000   -2.69280000
 H                 -8.93270000   -2.41470000   -2.69180000
 H                 -7.22320000   -3.79270000   -2.87560000
 C                 -6.87520000   -5.61360000    1.81850000
 N                 -7.34240000   -6.79540000    1.38630000
 C                 -8.57900000   -7.17710000    1.73920000
 C                 -9.40790000   -6.36650000    2.49840000
 C                 -8.96350000   -5.10190000    2.91310000
 C                 -9.83710000   -4.15050000    3.62310000
 C                -10.84890000   -4.59890000    4.50050000
 C                -11.69720000   -3.71500000    5.16100000
 C                -11.51450000   -2.36190000    4.90780000
 O                -12.24820000   -1.34290000    5.43280000
 C                -11.75230000   -0.18890000    4.90860000
 C                -12.22330000    1.09250000    5.16290000
 C                -11.58680000    2.13930000    4.50270000
 C                -10.50250000    1.92120000    3.62440000
 C                 -9.85700000    3.03950000    2.91360000
 C                 -8.49790000    2.98170000    2.56660000
 C                 -7.93610000    3.98820000    1.80520000
 N                 -8.64710000    5.04650000    1.38540000
 C                 -9.93310000    5.15590000    1.75140000
 C                -10.56350000    4.18320000    2.51120000
 C                -10.04480000    0.61680000    3.39570000
 C                -10.67820000   -0.44280000    4.03680000
 C                -10.52060000   -1.88090000    4.03640000
 C                 -9.67250000   -2.77780000    3.39520000
 C                 -7.64490000   -4.75470000    2.57920000
 H                 -5.85680000   -5.33980000    1.53380000
 H                 -8.92280000   -8.14940000    1.38060000
 H                -10.41790000   -6.71390000    2.71800000
 H                -10.96050000   -5.66830000    4.68930000
 H                -12.46930000   -4.06800000    5.84550000
 H                -13.05340000    1.26980000    5.84760000
 H                -11.92780000    3.15900000    4.69180000
 H                 -7.86460000    2.15340000    2.88380000
 H                 -6.88560000    3.93810000    1.50980000
 H                -10.47800000    6.03650000    1.40440000
 H                -11.62190000    4.30650000    2.74210000
 H                 -9.22660000    0.42510000    2.69930000
 H                 -8.91550000   -2.41340000    2.69860000
 H                 -7.20500000   -3.81290000    2.90700000

 1 6 1.0 45 1.0 84 1.0 123 1.0
 2 22 1.0 61 1.0 240 1.0 279 1.0
 3 162 1.0 201 1.0 256 1.0 295 1.0
 4 100 1.0 139 1.0 178 1.0 217 1.0
 5 6 1.5 29 2.0 30 1.0
 6 7 1.5
 7 8 2.0 31 1.0
 8 9 1.5 32 1.0
 9 10 1.0 29 1.5
 10 11 1.5 28 1.5
 11 12 1.5 33 1.0
 12 13 1.5 34 1.0
 13 14 1.0 27 1.5
 14 15 1.0
 15 16 1.5 26 1.5
 16 17 1.5 35 1.0
 17 18 1.5 36 1.0
 18 19 1.0 25 1.5
 19 20 1.5 24 1.5
 20 21 2.0 37 1.0
 21 22 1.5 38 1.0
 22 23 1.5
 23 24 2.0 39 1.0
 24 40 1.0
 25 26 1.5 41 1.0
 26 27 1.5
 27 28 1.5
 28 42 1.0
 29 43 1.0
 30
 31
 32
 33
 34
 35
 36
 37
 38
 39
 40
 41
 42
 43
 44 45 1.5 68 2.0 69 1.0
 45 46 1.5
 46 47 1.5 70 1.0
 47 48 1.5 71 1.0
 48 49 1.0 68 1.5
 49 50 1.5 67 1.5
 50 51 1.5 72 1.0
 51 52 1.5 73 1.0
 52 53 1.0 66 1.5
 53 54 1.0
 54 55 1.5 65 1.5
 55 56 1.5 74 1.0
 56 57 1.5 75 1.0
 57 58 1.0 64 1.5
 58 59 1.5 63 1.5
 59 60 2.0 76 1.0
 60 61 1.5 77 1.0
 61 62 1.5
 62 63 1.5 78 1.0
 63 79 1.0
 64 65 1.5 80 1.0
 65 66 1.5
 66 67 1.5
 67 81 1.0
 68 82 1.0
 69
 70
 71
 72
 73
 74
 75
 76
 77
 78
 79
 80
 81
 82
 83 84 1.5 107 2.0 108 1.0
 84 85 1.5
 85 86 1.5 109 1.0
 86 87 1.5 110 1.0
 87 88 1.0 107 1.5
 88 89 1.5 106 1.5
 89 90 1.5 111 1.0
 90 91 1.5 112 1.0
 91 92 1.0 105 1.5
 92 93 1.0
 93 94 1.5 104 1.5
 94 95 1.5 113 1.0
 95 96 1.5 114 1.0
 96 97 1.0 103 1.5
 97 98 1.5 102 1.5
 98 99 2.0 115 1.0
 99 100 1.5 116 1.0
 100 101 1.5
 101 102 1.5 117 1.0
 102 118 1.0
 103 104 1.5 119 1.0
 104 105 1.5
 105 106 1.5
 106 120 1.0
 107 121 1.0
 108
 109
 110
 111
 112
 113
 114
 115
 116
 117
 118
 119
 120
 121
 122 123 1.5 146 2.0 147 1.0
 123 124 1.5
 124 125 2.0 148 1.0
 125 126 1.5 149 1.0
 126 127 1.0 146 1.5
 127 128 1.5 145 1.5
 128 129 1.5 150 1.0
 129 130 1.5 151 1.0
 130 131 1.0 144 1.5
 131 132 1.0
 132 133 1.5 143 1.5
 133 134 1.5 152 1.0
 134 135 1.5 153 1.0
 135 136 1.0 142 1.5
 136 137 1.5 141 1.5
 137 138 2.0 154 1.0
 138 139 1.5 155 1.0
 139 140 1.5
 140 141 2.0 156 1.0
 141 157 1.0
 142 143 1.5 158 1.0
 143 144 1.5
 144 145 1.5
 145 159 1.0
 146 160 1.0
 147
 148
 149
 150
 151
 152
 153
 154
 155
 156
 157
 158
 159
 160
 161 162 1.5 185 2.0 186 1.0
 162 163 1.5
 163 164 2.0 187 1.0
 164 165 1.5 188 1.0
 165 166 1.0 185 1.5
 166 167 1.5 184 1.5
 167 168 1.5 189 1.0
 168 169 1.5 190 1.0
 169 170 1.0 183 1.5
 170 171 1.0
 171 172 1.5 182 1.5
 172 173 1.5 191 1.0
 173 174 1.5 192 1.0
 174 175 1.0 181 1.5
 175 176 1.5 180 1.5
 176 177 2.0 193 1.0
 177 178 1.5 194 1.0
 178 179 1.5
 179 180 1.5 195 1.0
 180 196 1.0
 181 182 1.5 197 1.0
 182 183 1.5
 183 184 1.5
 184 198 1.0
 185 199 1.0
 186
 187
 188
 189
 190
 191
 192
 193
 194
 195
 196
 197
 198
 199
 200 201 1.5 224 2.0 225 1.0
 201 202 1.5
 202 203 2.0 226 1.0
 203 204 1.5 227 1.0
 204 205 1.0 224 1.5
 205 206 1.5 223 1.5
 206 207 1.5 228 1.0
 207 208 1.5 229 1.0
 208 209 1.0 222 1.5
 209 210 1.0
 210 211 1.5 221 1.5
 211 212 1.5 230 1.0
 212 213 1.5 231 1.0
 213 214 1.0 220 1.5
 214 215 1.5 219 1.5
 215 216 2.0 232 1.0
 216 217 1.5 233 1.0
 217 218 1.5
 218 219 1.5 234 1.0
 219 235 1.0
 220 221 1.5 236 1.0
 221 222 1.5
 222 223 1.5
 223 237 1.0
 224 238 1.0
 225
 226
 227
 228
 229
 230
 231
 232
 233
 234
 235
 236
 237
 238
 239 240 1.5 263 2.0 264 1.0
 240 241 1.5
 241 242 1.5 265 1.0
 242 243 1.5 266 1.0
 243 244 1.0 263 1.5
 244 245 1.5 262 1.5
 245 246 1.5 267 1.0
 246 247 1.5 268 1.0
 247 248 1.0 261 1.5
 248 249 1.0
 249 250 1.5 260 1.5
 250 251 1.5 269 1.0
 251 252 1.5 270 1.0
 252 253 1.0 259 1.5
 253 254 1.5 258 1.5
 254 255 2.0 271 1.0
 255 256 1.5 272 1.0
 256 257 1.5
 257 258 1.5 273 1.0
 258 274 1.0
 259 260 1.5 275 1.0
 260 261 1.5
 261 262 1.5
 262 276 1.0
 263 277 1.0
 264
 265
 266
 267
 268
 269
 270
 271
 272
 273
 274
 275
 276
 277
 278 279 1.5 302 2.0 303 1.0
 279 280 1.5
 280 281 2.0 304 1.0
 281 282 1.5 305 1.0
 282 283 1.0 302 1.5
 283 284 1.5 301 1.5
 284 285 1.5 306 1.0
 285 286 1.5 307 1.0
 286 287 1.0 300 1.5
 287 288 1.0
 288 289 1.5 299 1.5
 289 290 1.5 308 1.0
 290 291 1.5 309 1.0
 291 292 1.0 298 1.5
 292 293 1.5 297 1.5
 293 294 2.0 310 1.0
 294 295 1.5 311 1.0
 295 296 1.5
 296 297 2.0 312 1.0
 297 313 1.0
 298 299 1.5 314 1.0
 299 300 1.5
 300 301 1.5
 301 315 1.0
 302 316 1.0
 303
 304
 305
 306
 307
 308
 309
 310
 311
 312
 313
 314
 315
 316

