%chk=trans_l2_lc_FINAL.chk
%nprocshared=48
%mem=120GB
# SP PBE1PBE/def2svp empiricaldispersion=GD3BJ scrf=(solvent=dmso)

trans_l2_lc

4 1
 Pd                -6.22840000    0.82180000    0.54500000
 Pd                 6.22840000    0.82180000   -0.54500000
 C                  0.00000000    6.62930000    0.00000000
 C                  1.20940000    5.93820000   -0.00650000
 C                  1.21640000    4.53720000    0.01170000
 C                  0.00000000    3.84830000    0.00010000
 C                 -1.21640000    4.53720000   -0.01150000
 C                 -1.20940000    5.93820000    0.00660000
 C                 -2.47240000    3.76430000   -0.01860000
 C                 -3.54370000    4.10070000    0.81780000
 C                 -4.65140000    3.27150000    0.87540000
 N                 -4.74290000    2.15610000    0.13460000
 C                 -3.76220000    1.85970000   -0.73290000
 C                 -2.61830000    2.63130000   -0.83110000
 C                  2.47230000    3.76430000    0.01880000
 C                  2.61830000    2.63130000    0.83130000
 C                  3.76220000    1.85970000    0.73300000
 N                  4.74280000    2.15610000   -0.13450000
 C                  4.65130000    3.27150000   -0.87530000
 C                  3.54370000    4.10080000   -0.81770000
 H                  0.00000000    7.72110000    0.00000000
 H                  2.15220000    6.48960000    0.00250000
 H                  0.00000000    2.75590000    0.00010000
 H                 -2.15230000    6.48950000   -0.00250000
 H                 -3.49970000    4.97460000    1.46880000
 H                 -5.47880000    3.48470000    1.55460000
 H                 -3.89400000    0.96750000   -1.34860000
 H                 -1.84280000    2.34120000   -1.54110000
 H                  1.84280000    2.34130000    1.54130000
 H                  3.89400000    0.96740000    1.34870000
 H                  5.47880000    3.48470000   -1.55450000
 H                  3.49960000    4.97470000   -1.46860000
 C                  0.00000000   -4.97970000   -0.00030000
 C                  1.19380000   -4.28780000   -0.18520000
 C                  1.19780000   -2.88780000   -0.21090000
 C                 -0.00010000   -2.19660000   -0.00010000
 C                 -1.19790000   -2.88780000    0.21070000
 C                 -1.19390000   -4.28790000    0.18470000
 C                 -2.44360000   -2.13260000    0.44590000
 C                 -2.48540000   -1.06000000    1.34690000
 C                 -3.64630000   -0.31680000    1.47590000
 N                 -4.74380000   -0.57660000    0.74480000
 C                 -4.74080000   -1.63630000   -0.08160000
 C                 -3.62420000   -2.44050000   -0.24100000
 C                  2.44350000   -2.13250000   -0.44600000
 C                  3.62410000   -2.44050000    0.24090000
 C                  4.74070000   -1.63630000    0.08150000
 N                  4.74370000   -0.57650000   -0.74480000
 C                  3.64620000   -0.31670000   -1.47590000
 C                  2.48540000   -1.05990000   -1.34700000
 H                  0.00000000   -6.07130000   -0.00040000
 H                  2.12470000   -4.83710000   -0.34110000
 H                 -0.00010000   -1.10370000    0.00000000
 H                 -2.12480000   -4.83720000    0.34060000
 H                 -1.61750000   -0.80410000    1.95550000
 H                 -3.70070000    0.52790000    2.16470000
 H                 -5.65450000   -1.82410000   -0.64880000
 H                 -3.66090000   -3.26890000   -0.94880000
 H                  3.66080000   -3.26900000    0.94850000
 H                  5.65440000   -1.82420000    0.64870000
 H                  3.70070000    0.52800000   -2.16460000
 H                  1.61740000   -0.80380000   -1.95560000
 C                  9.14850000    4.01180000   -0.29190000
 C                  9.03530000    4.38350000    1.07360000
 C                  8.13660000    3.63260000    1.88220000
 C                  7.92950000    3.94830000    3.26320000
 C                  8.63270000    5.00100000    3.80160000
 C                  9.54040000    5.74400000    3.00370000
 C                  9.74440000    5.45320000    1.67330000
 C                  6.93540000    3.08570000    3.95680000
 C                  5.57070000    3.39450000    3.88210000
 C                  4.60920000    2.41460000    4.10740000
 C                  4.99860000    1.09480000    4.39860000
 C                  4.07240000    0.01220000    4.34930000
 C                  3.36750000   -0.96810000    4.17830000
 C                  2.63620000   -2.16750000    3.93200000
 C                  3.34440000   -3.35730000    3.66930000
 C                  2.65830000   -4.53500000    3.39340000
 C                  1.26750000   -4.55620000    3.38930000
 C                  0.54270000   -3.38380000    3.67190000
 C                 -0.88050000   -3.42540000    3.71210000
 C                 -2.09560000   -3.50030000    3.75680000
 C                 -3.51680000   -3.57280000    3.74900000
 C                 -4.29100000   -2.58270000    4.38140000
 C                 -5.67550000   -2.60560000    4.28190000
 C                 -6.32640000   -3.60760000    3.54600000
 C                 -7.77460000   -3.51670000    3.23770000
 C                 -8.22930000   -2.44370000    2.40650000
 C                 -9.58770000   -2.36930000    1.98520000
 C                 -9.93530000   -1.31460000    1.10320000
 C                 -8.98520000   -0.42390000    0.67600000
 N                 -7.68910000   -0.50030000    1.09520000
 C                 -7.33890000   -1.46490000    1.92830000
 C                -10.49920000   -3.35440000    2.43420000
 C                -10.05030000   -4.37720000    3.23900000
 C                 -8.69240000   -4.46980000    3.62740000
 C                 -5.55850000   -4.62970000    2.97290000
 C                 -4.17270000   -4.61670000    3.07210000
 C                  1.23400000   -2.18930000    3.93120000
 C                  6.36420000    0.82340000    4.60980000
 C                  7.31760000    1.80950000    4.39230000
 C                  7.42870000    2.58100000    1.27470000
 N                  7.54640000    2.27110000   -0.00390000
 C                  8.40160000    2.97550000   -0.79590000
 H                  9.82500000    4.55550000   -0.95320000
 H                  8.49300000    5.26910000    4.85060000
 H                 10.08610000    6.57120000    3.46300000
 H                 10.44250000    6.03980000    1.07280000
 H                  5.25980000    4.38960000    3.55550000
 H                  3.55080000    2.65050000    3.98300000
 H                  4.43590000   -3.34160000    3.67740000
 H                  3.21540000   -5.45000000    3.18110000
 H                  0.72760000   -5.48000000    3.17680000
 H                 -3.79470000   -1.78200000    4.93250000
 H                 -6.26240000   -1.81600000    4.75720000
 H                -10.96080000   -1.21620000    0.74350000
 H                 -9.22930000    0.37650000   -0.02110000
 H                 -6.29800000   -1.49360000    2.23890000
 H                -11.54520000   -3.29970000    2.12630000
 H                -10.74990000   -5.14300000    3.58140000
 H                 -8.36740000   -5.30720000    4.24850000
 H                 -6.05330000   -5.41760000    2.40060000
 H                 -3.58250000   -5.40130000    2.59520000
 H                  0.67580000   -1.27580000    4.14100000
 H                  6.67520000   -0.18850000    4.87580000
 H                  8.37870000    1.56160000    4.47040000
 H                  6.72980000    1.98480000    1.85950000
 H                  8.45880000    2.67210000   -1.84210000
 C                  9.93530000   -1.31440000   -1.10330000
 C                  9.58780000   -2.36900000   -1.98540000
 C                  8.22930000   -2.44350000   -2.40660000
 C                  7.77470000   -3.51650000   -3.23800000
 C                  8.69260000   -4.46940000   -3.62790000
 C                 10.05050000   -4.37670000   -3.23960000
 C                 10.49930000   -3.35390000   -2.43470000
 C                  6.32650000   -3.60730000   -3.54620000
 C                  5.67560000   -2.60520000   -4.28200000
 C                  4.29110000   -2.58230000   -4.38140000
 C                  3.51690000   -3.57240000   -3.74910000
 C                  2.09570000   -3.49990000   -3.75690000
 C                  0.88060000   -3.42500000   -3.71210000
 C                 -0.54260000   -3.38340000   -3.67190000
 C                 -1.26740000   -4.55580000   -3.38950000
 C                 -2.65820000   -4.53470000   -3.39360000
 C                 -3.34430000   -3.35690000   -3.66940000
 C                 -2.63610000   -2.16710000   -3.93190000
 C                 -3.36740000   -0.96770000   -4.17820000
 C                 -4.07240000    0.01260000   -4.34910000
 C                 -4.99850000    1.09520000   -4.39840000
 C                 -6.36400000    0.82380000   -4.60980000
 C                 -7.31750000    1.80990000   -4.39230000
 C                 -6.93540000    3.08600000   -3.95660000
 C                 -7.92960000    3.94850000   -3.26300000
 C                 -8.13660000    3.63280000   -1.88200000
 C                 -9.03540000    4.38350000   -1.07340000
 C                 -9.14870000    4.01170000    0.29210000
 C                 -8.40170000    2.97540000    0.79600000
 N                 -7.54640000    2.27110000    0.00400000
 C                 -7.42870000    2.58110000   -1.27450000
 C                 -9.74470000    5.45310000   -1.67300000
 C                 -9.54070000    5.74400000   -3.00340000
 C                 -8.63290000    5.00110000   -3.80130000
 C                 -5.57070000    3.39480000   -3.88160000
 C                 -4.60910000    2.41490000   -4.10690000
 C                 -1.23380000   -2.18900000   -3.93110000
 C                  4.17280000   -4.61640000   -3.07240000
 C                  5.55870000   -4.62940000   -2.97320000
 C                  7.33890000   -1.46490000   -1.92830000
 N                  7.68900000   -0.50030000   -1.09510000
 C                  8.98520000   -0.42380000   -0.67600000
 H                 10.96080000   -1.21590000   -0.74360000
 H                  8.36760000   -5.30670000   -4.24910000
 H                 10.75010000   -5.14230000   -3.58210000
 H                 11.54540000   -3.29920000   -2.12680000
 H                  6.26250000   -1.81560000   -4.75730000
 H                  3.79480000   -1.78150000   -4.93250000
 H                 -0.72750000   -5.47970000   -3.17710000
 H                 -3.21530000   -5.44970000   -3.18150000
 H                 -4.43570000   -3.34130000   -3.67760000
 H                 -6.67500000   -0.18810000   -4.87600000
 H                 -8.37860000    1.56190000   -4.47060000
 H                 -9.82530000    4.55540000    0.95350000
 H                 -8.45890000    2.67200000    1.84230000
 H                 -6.72980000    1.98500000   -1.85940000
 H                -10.44280000    6.03960000   -1.07250000
 H                -10.08650000    6.57110000   -3.46270000
 H                 -8.49330000    5.26930000   -4.85030000
 H                 -5.25990000    4.38990000   -3.55490000
 H                 -3.55080000    2.65090000   -3.98230000
 H                 -0.67570000   -1.27540000   -4.14080000
 H                  3.58270000   -5.40100000   -2.59550000
 H                  6.05340000   -5.41740000   -2.40100000
 H                  6.29790000   -1.49360000   -2.23880000
 H                  9.22930000    0.37650000    0.02120000

 1 12 1.0 42 1.0 92 1.0 158 1.0
 2 18 1.0 48 1.0 103 1.0 169 1.0
 3 4 1.5 8 1.5 21 1.0
 4 5 1.5 22 1.0
 5 6 1.5 15 1.0
 6 7 1.5 23 1.0
 7 8 1.5 9 1.0
 8 24 1.0
 9 10 1.5 14 1.5
 10 11 2.0 25 1.0
 11 12 1.5 26 1.0
 12 13 1.5
 13 14 2.0 27 1.0
 14 28 1.0
 15 16 1.5 20 1.5
 16 17 2.0 29 1.0
 17 18 1.5 30 1.0
 18 19 1.5
 19 20 2.0 31 1.0
 20 32 1.0
 21
 22
 23
 24
 25
 26
 27
 28
 29
 30
 31
 32
 33 34 1.5 38 1.5 51 1.0
 34 35 1.5 52 1.0
 35 36 1.5 45 1.0
 36 37 1.5 53 1.0
 37 38 1.5 39 1.0
 38 54 1.0
 39 40 1.5 44 1.5
 40 41 2.0 55 1.0
 41 42 1.5 56 1.0
 42 43 1.5
 43 44 2.0 57 1.0
 44 58 1.0
 45 46 1.5 50 1.5
 46 47 2.0 59 1.0
 47 48 1.5 60 1.0
 48 49 1.5
 49 50 2.0 61 1.0
 50 62 1.0
 51
 52
 53
 54
 55
 56
 57
 58
 59
 60
 61
 62
 63 64 1.5 104 2.0 105 1.0
 64 65 1.5 69 1.5
 65 66 1.5 102 1.5
 66 67 2.0 70 1.0
 67 68 1.5 106 1.0
 68 69 2.0 107 1.0
 69 108 1.0
 70 71 1.5 101 1.5
 71 72 1.5 109 1.0
 72 73 1.5 110 1.0
 73 74 1.5 100 1.5
 74 75 3.0
 75 76 1.5
 76 77 1.5 99 1.5
 77 78 1.5 111 1.0
 78 79 1.5 112 1.0
 79 80 1.5 113 1.0
 80 81 1.5 99 1.5
 81 82 3.0
 82 83 1.5
 83 84 1.5 98 1.5
 84 85 1.5 114 1.0
 85 86 1.5 115 1.0
 86 87 1.0 97 1.5
 87 88 1.5 96 2.0
 88 89 1.5 93 1.5
 89 90 1.5 94 1.5
 90 91 2.0 116 1.0
 91 92 1.5 117 1.0
 92 93 2.0
 93 118 1.0
 94 95 2.0 119 1.0
 95 96 1.5 120 1.0
 96 121 1.0
 97 98 1.5 122 1.0
 98 123 1.0
 99 124 1.0
 100 101 1.5 125 1.0
 101 126 1.0
 102 103 2.0 127 1.0
 103 104 1.5
 104 128 1.0
 105
 106
 107
 108
 109
 110
 111
 112
 113
 114
 115
 116
 117
 118
 119
 120
 121
 122
 123
 124
 125
 126
 127
 128
 129 130 1.5 170 2.0 171 1.0
 130 131 1.5 135 1.5
 131 132 1.5 168 1.5
 132 133 2.0 136 1.0
 133 134 1.5 172 1.0
 134 135 2.0 173 1.0
 135 174 1.0
 136 137 1.5 167 1.5
 137 138 1.5 175 1.0
 138 139 1.5 176 1.0
 139 140 1.5 166 1.5
 140 141 3.0
 141 142 1.5
 142 143 1.5 165 1.5
 143 144 1.5 177 1.0
 144 145 1.5 178 1.0
 145 146 1.5 179 1.0
 146 147 1.5 165 1.5
 147 148 3.0
 148 149 1.5
 149 150 1.5 164 1.5
 150 151 1.5 180 1.0
 151 152 1.5 181 1.0
 152 153 1.0 163 1.5
 153 154 1.5 162 2.0
 154 155 1.5 159 1.5
 155 156 1.5 160 1.5
 156 157 2.0 182 1.0
 157 158 1.5 183 1.0
 158 159 2.0
 159 184 1.0
 160 161 2.0 185 1.0
 161 162 1.5 186 1.0
 162 187 1.0
 163 164 1.5 188 1.0
 164 189 1.0
 165 190 1.0
 166 167 1.5 191 1.0
 167 192 1.0
 168 169 2.0 193 1.0
 169 170 1.5
 170 194 1.0
 171
 172
 173
 174
 175
 176
 177
 178
 179
 180
 181
 182
 183
 184
 185
 186
 187
 188
 189
 190
 191
 192
 193
 194

