  86
       -135.62072293
 H         -8.0737020899       -1.4058586108       -0.1785256901
 C         -7.1221143398       -1.9283125307       -0.0293418699
 N         -6.9847129297       -3.1861746707       -0.1059416996
 C         -8.0399567696       -4.0533001408       -0.2897201295
 C         -9.2534055097       -3.9178534508        0.3894430004
 C        -10.2478197896       -4.8625653709        0.2271527306
 C        -10.0570103594       -5.9415175311       -0.6202743092
 C         -8.8540643294       -6.0829552711       -1.2954605291
 C         -7.8453607495       -5.1576839910       -1.1228933392
 H         -6.9048515494       -5.2555329110       -1.6432242492
 H         -8.7009972493       -6.9261487512       -1.9531894389
 H        -10.8397592994       -6.6741582312       -0.7485205291
 H        -11.1798249496       -4.7549898208        0.7632094405
 H         -9.3910970598       -3.0856612906        1.0651808402
 C         -5.9826057599       -1.0653784005        0.2326706000
 N         -6.2341750101        0.2445722495        0.2641833696
 C         -5.2394070601        1.0714594796        0.4932137095
 C         -3.9189400001        0.6648649798        0.7089344097
 C         -3.6606417400       -0.7067082302        0.6804791900
 C         -4.6998043699       -1.5809913503        0.4374468602
 H         -4.5541780898       -2.6484019803        0.4046737704
 H         -2.6589645900       -1.0718936801        0.8511369302
 C         -2.8619931402        1.6532625999        0.9512810695
 C         -3.0551009604        2.6778673001        1.8455995193
 C         -2.0516510405        3.6301950803        2.1051785491
 C         -2.2392404406        4.6764081105        3.0328923189
 C         -1.2492506907        5.5894404006        3.2651214087
 C         -0.0268612107        5.4965013206        2.5823183588
 C          0.1873835595        4.4934160804        1.6782002291
 C         -0.8159635704        3.5385771002        1.4146922492
 C         -0.6260931103        2.4875659200        0.4795314695
 C         -1.6273725402        1.5697006999        0.2556529296
 O         -1.4005386300        0.5344368897       -0.6393134801
 C         -1.9684479300        0.7337677294       -1.9157557102
 H         -1.7459539799       -0.1644939707       -2.4883336000
 H         -1.5256798200        1.6038588293       -2.4126210004
 H         -3.0542843500        0.8675158693       -1.8552508803
 C          0.6144395698        2.4215264900       -0.3358733104
 C          1.6725561598        1.5759188901       -0.0754369202
 C          2.8004757399        1.5631544600       -0.9551972301
 C          2.8474851799        2.4052825398       -2.0317480203
 C          1.7863993698        3.2830054896       -2.3226955906
 C          1.8214216898        4.1429032994       -3.4381825907
 C          0.7747485498        4.9785572392       -3.7109824210
 C         -0.3494366603        4.9819205993       -2.8742723311
 C         -0.4100079003        4.1583109395       -1.7833651809
 C          0.6546766798        3.2853664797       -1.4702852506
 H         -1.2845310803        4.1771669996       -1.1495991909
 H         -1.1748334003        5.6424999792       -3.0960218513
 H          0.8053122498        5.6358365490       -4.5671292411
 H          2.6949599099        4.1258701893       -4.0739598607
 H          3.7029399599        2.3814971797       -2.6913705602
 C          3.9184415600        0.6447888902       -0.7004901198
 C          5.2345444199        1.1155335703       -0.7037834499
 N          6.2891944400        0.3546207704       -0.5149194096
 C          6.1054044201       -0.9496111695       -0.3039825493
 C          4.8326063201       -1.5263431497       -0.2797938693
 C          3.7318271601       -0.7204122498       -0.4830683495
 H          2.7358748901       -1.1366556799       -0.4876059595
 H          4.7436006202       -2.5871422596       -0.1097438491
 C          7.3082543101       -1.7388939094       -0.1001721991
 N          7.2468404402       -2.9906835194        0.0906797912
 C          8.3508495203       -3.7701334692        0.3602470114
 C          9.3455932702       -3.3773551989        1.2593714314
 C         10.3880417203       -4.2328661187        1.5578145617
 C         10.4646277204       -5.4790731189        0.9581126319
 C          9.4795947105       -5.8757432492        0.0663384320
 C          8.4217850304       -5.0381264393       -0.2216675083
 H          7.6493066205       -5.3349443095       -0.9145863383
 H          9.5345620706       -6.8490173293       -0.3993996578
 H         11.2847780405       -6.1421444187        1.1899244121
 H         11.1483228502       -3.9241277985        2.2609274216
 H          9.2715723401       -2.4120765588        1.7399030712
 H          8.2462085501       -1.1743217993       -0.1504677592
 H          5.4385151098        2.1683219003       -0.8559805001
 O          1.8412587999        0.7436059604        0.9872323200
 C          0.8545816698        0.5458552105        1.9675508000
 H          0.5792342497        1.4763692806        2.4702641598
 H          1.3120552398       -0.1301075493        2.6908390202
 H         -0.0387467601        0.0766739403        1.5492188401
 H          1.1276954495        4.4196707803        1.1514658091
 H          0.7463310493        6.2245993607        2.7774118587
 H         -1.4000185208        6.3879490608        3.9763607086
 H         -3.1825720307        4.7404217105        3.5558392888
 H         -3.9885358104        2.7453466502        2.3858411792
 H         -5.4948049602        2.1241031396        0.4898356993
