56
Coordinates from ORCA-job _longD E -1372.919643638130
  H      -7.353768     -0.910637     -1.374886
  C      -7.029811     -0.285128     -0.535647
  N      -7.822716      0.360137      0.214174
  C      -9.194701      0.267877      0.120826
  C      -9.856484     -0.951039     -0.048119
  C     -11.236934     -0.995549     -0.053375
  C     -11.975446      0.167206      0.092623
  C     -11.324686      1.379836      0.262833
  C      -9.946317      1.432753      0.293064
  H      -9.427854      2.370346      0.423527
  H     -11.898412      2.287468      0.381451
  H     -13.054468      0.128178      0.081582
  H     -11.740594     -1.943705     -0.175357
  H      -9.276916     -1.858481     -0.141676
  C      -5.591053     -0.208398     -0.347726
  N      -4.848559     -0.905061     -1.209427
  C      -3.540917     -0.866391     -1.091657
  C      -2.863179     -0.130481     -0.113399
  C      -3.647052      0.588827      0.791690
  C      -5.020885      0.550506      0.678572
  H      -5.667683      1.092320      1.349378
  H      -3.175679      1.186683      1.558935
  C      -1.400512     -0.124619     -0.045285
  C      -0.633703     -0.088591     -1.209417
  C       0.743986     -0.079129     -1.145467
  C       1.401434     -0.121291      0.083630
  C       0.634741     -0.165489      1.247489
  C      -0.743176     -0.159139      1.184054
  H      -1.319770     -0.203801      2.096430
  H       1.126255     -0.182975      2.209065
  C       2.864304     -0.124913      0.147855
  C       3.549363     -0.920987      1.072306
  N       4.858004     -0.966708      1.177210
  C       5.593817     -0.216245      0.355969
  C       5.015725      0.609842     -0.612428
  C       3.641208      0.654510     -0.712474
  H       3.163920      1.301563     -1.434825
  H       5.657458      1.195285     -1.250635
  C       7.034473     -0.308976      0.521115
  N       7.819702      0.378142     -0.199039
  C       9.192403      0.274928     -0.133802
  C       9.946874      1.445076     -0.248452
  C      11.325255      1.384905     -0.245735
  C      11.972669      0.161565     -0.160661
  C      11.230896     -1.004917     -0.072205
  C       9.850809     -0.954656     -0.050495
  H       9.268340     -1.863769     -0.002097
  H      11.731814     -1.960723     -0.016796
  H      13.051503      0.117552     -0.171167
  H      11.901454      2.295711     -0.319569
  H       9.430945      2.390877     -0.313117
  H       7.367006     -0.986540      1.315332
  H       3.006359     -1.568827      1.748878
  H       1.320620     -0.061304     -2.058716
  H      -1.125258     -0.045696     -2.170154
  H      -2.992449     -1.469462     -1.804243
56
Coordinates from ORCA-job _longD E -1372.925400887063
  H      -7.415623     -0.877230     -1.336866
  C      -7.078479     -0.250506     -0.490529
  N      -7.870836      0.377333      0.281886
  C      -9.249876      0.265018      0.180133
  C      -9.891673     -0.958966     -0.066580
  C     -11.279444     -1.023810     -0.116904
  C     -12.045368      0.125238      0.063883
  C     -11.413554      1.344054      0.308823
  C     -10.028991      1.414335      0.383326
  H      -9.521898      2.360178      0.583037
  H     -12.010223      2.247511      0.456452
  H     -13.135678      0.070027      0.023337
  H     -11.769109     -1.984022     -0.297250
  H      -9.289512     -1.862318     -0.189104
  C      -5.625021     -0.179004     -0.321842
  N      -4.893462     -0.867359     -1.205252
  C      -3.575659     -0.833175     -1.102543
  C      -2.882918     -0.111270     -0.116859
  C      -3.660495      0.599585      0.808143
  C      -5.040684      0.566963      0.709852
  H      -5.687411      1.108864      1.401713
  H      -3.175251      1.191915      1.587720
  C      -1.411657     -0.113187     -0.059348
  C      -0.645438     -0.078148     -1.232377
  C       0.740812     -0.075287     -1.176428
  C       1.411478     -0.116497      0.053329
  C       0.645249     -0.156666      1.226006
  C      -0.740984     -0.150349      1.170362
  H      -1.317488     -0.192212      2.097298
  H       1.146547     -0.173967      2.196246
  C       2.882797     -0.118480      0.110071
  C       3.575949     -0.901822      1.047142
  N       4.893820     -0.943112      1.146365
  C       5.624976     -0.200817      0.307650
  C       5.040224      0.610935     -0.673004
  C       3.659979      0.650466     -0.767775
  H       3.174341      1.293505     -1.505811
  H       5.686774      1.197086     -1.327947
  C       7.078643     -0.283726      0.469682
  N       7.870092      0.389571     -0.264382
  C       9.249255      0.272762     -0.170927
  C      10.027504      1.432195     -0.310784
  C      11.412180      1.358771     -0.242045
  C      12.044888      0.128546     -0.065998
  C      11.279841     -1.029263      0.051858
  C       9.892003     -0.962653      0.006882
  H       9.290513     -1.871772      0.079955
  H      11.770329     -1.997672      0.178076
  H      13.135290      0.071839     -0.029895
  H      12.008183      2.269426     -0.339750
  H       9.519602      2.387408     -0.456749
  H       7.416723     -0.959779      1.276822
  H       3.023738     -1.546699      1.740965
  H       1.317325     -0.057713     -2.104107
  H      -1.146767     -0.033226     -2.201682
  H      -3.023200     -1.434362     -1.834340
56
Coordinates from ORCA-job _longD E -1372.925780866876
  H      -7.439121     -0.861506     -1.301385
  C      -7.089913     -0.241485     -0.454259
  N      -7.871407      0.393313      0.323725
  C      -9.253243      0.288495      0.210769
  C      -9.901741     -0.926241     -0.068850
  C     -11.290541     -0.978177     -0.145897
  C     -12.051056      0.175010      0.043687
  C     -11.412319      1.383235      0.328300
  C     -10.027086      1.438939      0.429286
  H      -9.514190      2.373826      0.665249
  H     -12.003310      2.289189      0.486238
  H     -13.141326      0.130144     -0.016226
  H     -11.784738     -1.931484     -0.351410
  H      -9.306068     -1.833715     -0.195838
  C      -5.631599     -0.184552     -0.298622
  N      -4.915642     -0.871413     -1.195236
  C      -3.595304     -0.848374     -1.102153
  C      -2.887989     -0.141224     -0.114633
  C      -3.652933      0.567937      0.823325
  C      -5.034601      0.548533      0.735336
  H      -5.673022      1.090980      1.435304
  H      -3.156860      1.150507      1.604186
  C      -1.414995     -0.154691     -0.068483
  C      -0.654583     -0.123899     -1.246942
  C       0.733477     -0.125255     -1.200220
  C       1.414384     -0.165228      0.025351
  C       0.653894     -0.202680      1.203397
  C      -0.734025     -0.193666      1.156926
  H      -1.303615     -0.231899      2.088851
  H       1.160543     -0.218105      2.171437
  C       2.887391     -0.161705      0.073240
  C       3.589566     -0.930675      1.017083
  N       4.909399     -0.961591      1.114165
  C       5.630106     -0.221385      0.265301
  C       5.038655      0.574804     -0.724332
  C       3.657352      0.602071     -0.816617
  H       3.165387      1.234425     -1.560495
  H       5.680901      1.159911     -1.385343
  C       7.087353     -0.284871      0.428200
  N       7.872836      0.398265     -0.303382
  C       9.254093      0.294988     -0.182243
  C      10.022998      1.459825     -0.331110
  C      11.407352      1.406928     -0.217616
  C      12.050557      0.189153      0.010415
  C      11.295372     -0.976822      0.130545
  C       9.907242     -0.929003      0.040538
  H       9.316117     -1.845381      0.113028
  H      11.793404     -1.936730      0.291261
  H      13.140378      0.147573      0.080368
  H      11.994224      2.323421     -0.320569
  H       9.506756      2.402995     -0.522759
  H       7.431743     -0.952108      1.240770
  H       3.039323     -1.570674      1.717477
  H       1.303062     -0.108927     -2.132786
  H      -1.161215     -0.077080     -2.213967
  H      -3.049067     -1.445456     -1.842443
56
Coordinates from ORCA-job _longD E -1372.925898289184
  H      -7.450361     -0.844988     -1.280794
  C      -7.093145     -0.231659     -0.432660
  N      -7.866420      0.405914      0.351891
  C      -9.250331      0.305748      0.230304
  C      -9.904495     -0.899548     -0.076103
  C     -11.292907     -0.940004     -0.168625
  C     -12.047732      0.215218      0.034111
  C     -11.403559      1.412599      0.350977
  C     -10.018653      1.455725      0.466667
  H      -9.500329      2.379946      0.730238
  H     -11.989029      2.319536      0.521740
  H     -13.137271      0.179518     -0.038864
  H     -11.791128     -1.886136     -0.395097
  H      -9.315885     -1.810251     -0.210505
  C      -5.632467     -0.188145     -0.284612
  N      -4.927949     -0.870327     -1.192827
  C      -3.606666     -0.855730     -1.105708
  C      -2.889594     -0.163766     -0.114276
  C      -3.645046      0.540369      0.835442
  C      -5.027240      0.530681      0.754564
  H      -5.659998      1.070057      1.461576
  H      -3.141711      1.112017      1.619453
  C      -1.416483     -0.185458     -0.076159
  C      -0.660492     -0.157926     -1.257755
  C       0.727849     -0.162804     -1.217578
  C       1.415797     -0.202328      0.004278
  C       0.659683     -0.238345      1.185460
  C      -0.728445     -0.226779      1.145497
  H      -1.292341     -0.264163      2.080654
  H       1.169279     -0.253929      2.151707
  C       2.888922     -0.195861      0.046234
  C       3.596339     -0.950873      0.997708
  N       4.916708     -0.974522      1.094536
  C       5.630293     -0.239269      0.236347
  C       5.035489      0.540524     -0.764225
  C       3.653929      0.559691     -0.855094
  H       3.158435      1.180020     -1.606464
  H       5.675374      1.120521     -1.431544
  C       7.088873     -0.286004      0.402396
  N       7.869861      0.402381     -0.329795
  C       9.252353      0.309639     -0.186880
  C      10.011424      1.478393     -0.349218
  C      11.394031      1.445092     -0.206273
  C      12.046076      0.240811      0.064501
  C      11.301356     -0.931544      0.192994
  C       9.914832     -0.902103      0.072746
  H       9.335010     -1.825071      0.149025
  H      11.806335     -1.882201      0.382581
  H      13.134198      0.213838      0.159259
  H      11.971681      2.366072     -0.318590
  H       9.487388      2.409001     -0.576605
  H       7.436641     -0.945133      1.219554
  H       3.046353     -1.584645      1.703449
  H       1.291731     -0.148747     -2.153406
  H      -1.170003     -0.110048     -2.222986
  H      -3.064206     -1.446542     -1.853310
56
Coordinates from ORCA-job _longD E -1372.925920670127
  H      -7.448816     -0.840578     -1.281895
  C      -7.092479     -0.229687     -0.432001
  N      -7.866175      0.404496      0.355357
  C      -9.250370      0.300947      0.232140
  C      -9.902719     -0.902726     -0.082845
  C     -11.290759     -0.943942     -0.175894
  C     -12.047067      0.208597      0.035223
  C     -11.404832      1.404183      0.361290
  C     -10.020141      1.447902      0.477094
  H      -9.502274      2.370221      0.747489
  H     -11.991221      2.308994      0.539097
  H     -13.136347      0.172081     -0.039072
  H     -11.787595     -1.888913     -0.409393
  H      -9.314119     -1.812362     -0.223284
  C      -5.631896     -0.184375     -0.285301
  N      -4.927339     -0.861794     -1.196852
  C      -3.606254     -0.845923     -1.109944
  C      -2.889538     -0.157605     -0.115947
  C      -3.645227      0.541534      0.837295
  C      -5.027365      0.530486      0.757074
  H      -5.660989      1.065182      1.466553
  H      -3.142439      1.109968      1.623752
  C      -1.416705     -0.178410     -0.077998
  C      -0.660394     -0.150335     -1.259173
  C       0.727642     -0.155588     -1.218957
  C       1.415925     -0.195986      0.002493
  C       0.659482     -0.232293      1.183309
  C      -0.728333     -0.220440      1.143303
  H      -1.291513     -0.259247      2.078647
  H       1.168173     -0.248818      2.149822
  C       2.888740     -0.191064      0.044756
  C       3.595058     -0.943097      0.999230
  N       4.915122     -0.968078      1.096800
  C       5.629514     -0.237073      0.235807
  C       5.036217      0.538642     -0.768860
  C       3.654768      0.559369     -0.859954
  H       3.160496      1.176337     -1.614641
  H       5.677491      1.113738     -1.438758
  C       7.087849     -0.285153      0.401972
  N       7.869927      0.399968     -0.332631
  C       9.252616      0.304326     -0.186682
  C      10.012791      1.470681     -0.358929
  C      11.395077      1.437946     -0.214443
  C      12.045474      0.235891      0.068279
  C      11.299636     -0.934462      0.206482
  C       9.913608     -0.905353      0.084195
  H       9.334259     -1.827861      0.167538
  H      11.803458     -1.883673      0.405248
  H      13.133221      0.208900      0.165560
  H      11.973325      2.357347     -0.334950
  H       9.488996      2.398964     -0.595413
  H       7.433891     -0.942335      1.221036
  H       3.043202     -1.573801      1.706010
  H       1.290792     -0.142197     -2.155053
  H      -1.168993     -0.102130     -2.224683
  H      -3.062495     -1.432940     -1.859355
56
Coordinates from ORCA-job _longD E -1372.925926188376
  H      -7.446550     -0.841890     -1.283927
  C      -7.091984     -0.229864     -0.434236
  N      -7.867105      0.402843      0.353133
  C      -9.251209      0.295538      0.230475
  C      -9.901297     -0.908891     -0.085150
  C     -11.289234     -0.952528     -0.176357
  C     -12.047548      0.198077      0.037105
  C     -11.407573      1.394626      0.363398
  C     -10.022941      1.440784      0.477298
  H      -9.505998      2.363702      0.747228
  H     -11.995470      2.298031      0.543077
  H     -13.136796      0.159308     -0.036117
  H     -11.784455     -1.898136     -0.410542
  H      -9.311829     -1.817577     -0.227807
  C      -5.631814     -0.181598     -0.287217
  N      -4.925621     -0.857531     -1.198669
  C      -3.604785     -0.839441     -1.111249
  C      -2.889519     -0.150339     -0.116859
  C      -3.646676      0.547423      0.836249
  C      -5.028710      0.534186      0.755436
  H      -5.663787      1.067338      1.464687
  H      -3.145272      1.116501      1.623037
  C      -1.416855     -0.169418     -0.077985
  C      -0.659607     -0.140879     -1.258435
  C       0.728239     -0.145749     -1.217318
  C       1.415967     -0.186662      0.004319
  C       0.658573     -0.223007      1.184463
  C      -0.729050     -0.211109      1.143567
  H      -1.292316     -0.250357      2.078786
  H       1.166035     -0.239499      2.151561
  C       2.888588     -0.183192      0.047524
  C       3.593589     -0.935806      1.002446
  N       4.913383     -0.962944      1.100305
  C       5.629360     -0.233574      0.239133
  C       5.037346      0.542868     -0.765799
  C       3.656008      0.565690     -0.857296
  H       3.163086      1.183027     -1.612470
  H       5.679950      1.116155     -1.435881
  C       7.087329     -0.284976      0.404958
  N       7.870678      0.398733     -0.329865
  C       9.253421      0.298874     -0.185640
  C      10.015675      1.463478     -0.360671
  C      11.398112      1.428219     -0.219489
  C      12.046315      0.225075      0.062870
  C      11.298300     -0.943321      0.204363
  C       9.912203     -0.911678      0.085331
  H       9.331948     -1.833312      0.171581
  H      11.800515     -1.893287      0.403384
  H      13.134166      0.195678      0.157948
  H      11.977958      2.346205     -0.342652
  H       9.492685      2.392356     -0.596362
  H       7.431659     -0.943571      1.223473
  H       3.040403     -1.565608      1.708940
  H       1.291450     -0.132432     -2.153321
  H      -1.166985     -0.092536     -2.224526
  H      -3.059596     -1.425539     -1.860297
