  80
       -129.31124326
 H         -1.1365804261       -0.5972766619        1.4256239365
 O         -1.8968540186       -0.4793008797        0.8386087474
 C         -1.6901398521       -1.1677787178       -0.3137654637
 C         -0.5242433207       -1.8754137219       -0.5352234839
 C         -0.3230256998       -2.5647655736       -1.7599547392
 C          0.8314948207       -3.3372433221       -2.0087710807
 C          0.9960138820       -3.9807760493       -3.2037413017
 C          0.0173568272       -3.8872084936       -4.2045782643
 C         -1.1192227620       -3.1602514374       -3.9870688559
 C         -1.3220332949       -2.4867824206       -2.7648241926
 C         -2.4900440323       -1.7448453066       -2.5096668816
 C         -2.6975903825       -1.1037579175       -1.3130372404
 C         -3.9351351264       -0.3526625537       -1.0768248120
 C         -4.4492110946        0.4927749166       -2.0651278234
 N         -5.5651366627        1.1744038032       -1.9422328030
 C         -6.2582546314        1.0664771424       -0.8073795213
 C         -5.8294957499        0.2606780390        0.2506032578
 C         -4.6590127479       -0.4560062039        0.1112963107
 H         -4.3096467303       -1.0981176350        0.9053481429
 H         -6.4268228313        0.2129444792        1.1465360977
 C         -7.4873786347        1.8382558492       -0.7350959694
 N         -8.2385792673        1.7805174838        0.2844056305
 C         -9.3773353854        2.5432779028        0.4283990253
 C         -9.4198770745        3.8999316553        0.0968627618
 C        -10.5626666542        4.6372120685        0.3378982710
 C        -11.6793784616        4.0359049305        0.8947166717
 C        -11.6428959154        2.6903784257        1.2280750487
 C        -10.4987835213        1.9498881519        1.0129794044
 H        -10.4580518366        0.9016679968        1.2669855723
 H        -12.5109611591        2.2200714788        1.6667112307
 H        -12.5726418709        4.6150186985        1.0755492795
 H        -10.5837077236        5.6879680855        0.0867068972
 H         -8.5399264680        4.3698250260       -0.3190433409
 H         -7.7123007793        2.4339749200       -1.6269518893
 H         -3.9176016306        0.6325056440       -2.9983698198
 H         -3.2546237440       -1.7047480276       -3.2715349955
 H         -1.8841360424       -3.0909215366       -4.7468290671
 H          0.1665717789       -4.4002424408       -5.1427870858
 H          1.8828481157       -4.5704050928       -3.3823808857
 H          1.5821444312       -3.4231813980       -1.2363367402
 C          0.5275701935       -1.8878978480        0.5166631309
 C          1.6933866996       -1.1757610970        0.3094364574
 C          2.7047825480       -1.1386988036        1.3060604388
 C          2.5007439875       -1.8097220223        2.4867490296
 C          1.3322738630       -2.5558705357        2.7273546832
 C          1.1329378223       -3.2600705644        3.9327464641
 C         -0.0038314060       -3.9909016563        4.1358294504
 C         -0.9864018892       -4.0575183020        3.1366574172
 C         -0.8252978621       -3.3840383001        1.9578387094
 C          0.3295134635       -2.6071951192        1.7244288628
 H         -1.5789211613       -3.4490829689        1.1862467380
 H         -1.8735161467       -4.6501302353        3.3036559700
 H         -0.1502264675       -4.5276601453        5.0611246502
 H          1.9007601350       -3.2112864832        4.6911745548
 H          3.2684045821       -1.7905990904        3.2463364267
 C          3.9425433820       -0.3841691996        1.0822076583
 C          4.4640575303        0.4359480271        2.0877294626
 N          5.5788809874        1.1210257176        1.9735757412
 C          6.2631775870        1.0422830670        0.8310198007
 C          5.8276592124        0.2616676993       -0.2429652497
 C          4.6585512978       -0.4588323922       -0.1128619116
 H          4.3040507483       -1.0818359556       -0.9197472334
 H          6.4186558807        0.2361513988       -1.1439846933
 C          7.4897483635        1.8188541973        0.7667024361
 N          8.2295689164        1.7904400707       -0.2623082673
 C          9.3640021685        2.5606331589       -0.3999603336
 C          9.4055791672        3.9087076008       -0.0350149502
 C         10.5426767835        4.6563238265       -0.2711494630
 C         11.6547665241        4.0735875138       -0.8562103840
 C         11.6191931998        2.7366760653       -1.2227352567
 C         10.4804994609        1.9865041077       -1.0126140350
 H         10.4404910978        0.9448538357       -1.2924497779
 H         12.4836068879        2.2809777757       -1.6834465467
 H         12.5436516568        4.6605629509       -1.0332220639
 H         10.5628401746        5.7005487112        0.0060003411
 H          8.5289550140        4.3645348513        0.4029833493
 H          7.7226938470        2.3917643035        1.6713403516
 H          3.9394401440        0.5519896126        3.0281448391
 O          1.8966687512       -0.4581418565       -0.8256206285
 H          1.1341976955       -0.5603728901       -1.4127605358
