  46
        -72.19849438
 H         -5.1752739297        1.6071915873        0.4821506197
 C         -4.8804562173        0.6074689029        0.1447001647
 N         -5.6997638529       -0.2881017496       -0.2214901848
 C         -7.0676038050       -0.1407133162       -0.1418039512
 C         -7.8463528458       -0.6611828348       -1.1783621677
 C         -9.2226275006       -0.5859294328       -1.1170287018
 C         -9.8445731961       -0.0223362953       -0.0131453115
 C         -9.0793873181        0.4724410122        1.0301959100
 C         -7.7004723900        0.4238487875        0.9687121868
 H         -7.1005471486        0.7898366757        1.7897955627
 H         -9.5608967654        0.9019478599        1.8968739535
 H        -10.9221880941        0.0236246562        0.0368410861
 H         -9.8173439882       -0.9768041398       -1.9297074590
 H         -7.3499059551       -1.0961773044       -2.0322630000
 C         -3.4474085538        0.3695029191        0.1081869519
 N         -2.6729586917        1.3857465154        0.4908143146
 C         -1.3692851760        1.2295621747        0.4709845950
 C         -0.7285045128        0.0539823242        0.0632441466
 C         -1.5447941489       -1.0110639555       -0.3268451335
 C         -2.9145975524       -0.8565666574       -0.3022278755
 H         -3.5867906241       -1.6457720372       -0.5971881060
 H         -1.1008169881       -1.9365729652       -0.6647389545
 C          0.7283377760       -0.0515571651        0.0628768331
 C          1.3688864103       -1.2298321237        0.4631685740
 N          2.6724977431       -1.3865010105        0.4817376712
 C          3.4471843086       -0.3680569143        0.1054384281
 C          2.9146343323        0.8607302370       -0.2970932405
 C          1.5448429992        1.0157160097       -0.3205887768
 H          1.1010556269        1.9434292172       -0.6526453155
 H          3.5869586416        1.6516143527       -0.5872224173
 C          4.8800785958       -0.6071101392        0.1399954461
 N          5.7001585473        0.2908971587       -0.2184658380
 C          7.0678629600        0.1411035270       -0.1401558349
 C          7.8471306803        0.6710293999       -1.1715218785
 C          9.2233061066        0.5930428458       -1.1113802663
 C          9.8446873517        0.0170970410       -0.0135700163
 C          9.0790373540       -0.4871085964        1.0249064194
 C          7.7001806125       -0.4356562887        0.9643946389
 H          7.0999866054       -0.8090425832        1.7819382536
 H          9.5601339932       -0.9262859064        1.8869545498
 H         10.9222411178       -0.0312145541        0.0355320463
 H          9.8184030303        0.9913187080       -1.9201780580
 H          7.3510892117        1.1155404272       -2.0207430047
 H          5.1741085236       -1.6098629690        0.4690601460
 H          0.7931359332       -2.0816400124        0.8027183663
 H         -0.7936948730        2.0794369620        0.8156092642
