%nprocshared=48
%mem=120GB
%chk=m2_lb.chk
# OPT HSEH1PBE/def2svp scrf=(solvent=dmso)

m2_lb

4 1
 Pd                 9.17400000   -0.54000000    1.01300000
 Pd                -9.14100000   -1.33300000    0.28900000
 C                 11.48800000   -2.84500000   -1.73500000
 C                 11.08500000   -1.90800000   -0.82100000
 N                  9.76900000   -1.73700000   -0.51300000
 C                  8.84900000   -2.47600000   -1.10500000
 C                  9.16100000   -3.48900000   -2.03400000
 C                  8.14400000   -4.29700000   -2.63400000
 C                  6.73200000   -4.04200000   -2.26500000
 C                  6.28400000   -4.22700000   -0.94800000
 C                  5.03300000   -3.77000000   -0.55100000
 C                  4.20300000   -3.10600000   -1.47100000
 C                  3.01200000   -2.43300000   -1.07800000
 C                  2.05500000   -1.71900000   -0.83900000
 C                  1.03500000   -0.72800000   -0.69700000
 N                  0.12000000   -0.85900000    0.27100000
 C                 -0.81000000    0.09700000    0.38800000
 C                 -1.79000000   -0.01000000    1.42400000
 C                 -2.69400000    0.04000000    2.23800000
 C                 -3.82700000    0.22600000    3.07900000
 C                 -4.16400000    1.52800000    3.49000000
 C                 -5.37100000    1.77100000    4.13400000
 C                 -6.27200000    0.72600000    4.37700000
 C                 -7.64500000    1.02200000    4.84400000
 C                 -7.90100000    1.66900000    6.03600000
 C                 -9.22400000    1.95100000    6.44700000
 C                -10.30400000    1.59400000    5.67200000
 C                -10.09100000    0.94800000    4.43100000
 C                -11.14600000    0.56200000    3.56500000
 C                -10.87000000   -0.04900000    2.37000000
 N                 -9.58900000   -0.28500000    1.97300000
 C                 -8.57900000    0.07700000    2.74600000
 C                 -8.75600000    0.67400000    4.01000000
 C                 -5.88500000   -0.58700000    4.06000000
 C                 -4.67900000   -0.83900000    3.42100000
 C                 -0.86900000    1.21400000   -0.46000000
 C                  0.09000000    1.34800000   -1.45600000
 C                  1.06000000    0.36400000   -1.58200000
 C                  4.61500000   -3.00500000   -2.81300000
 C                  5.86300000   -3.47000000   -3.20300000
 C                  8.52200000   -5.23400000   -3.57200000
 C                  9.88200000   -5.41700000   -3.91400000
 C                 10.87500000   -4.66300000   -3.32900000
 C                 10.53400000   -3.67600000   -2.37500000
 H                 12.55000000   -2.95200000   -1.96500000
 H                 11.79500000   -1.26300000   -0.30100000
 H                  7.81100000   -2.27900000   -0.83300000
 H                  6.94100000   -4.70200000   -0.21500000
 H                  4.71300000   -3.88400000    0.48600000
 H                 -3.49000000    2.35300000    3.24700000
 H                 -5.64900000    2.79400000    4.39900000
 H                 -7.06700000    1.95000000    6.68300000
 H                 -9.38500000    2.45400000    7.40300000
 H                -11.32400000    1.80400000    5.99800000
 H                -12.18300000    0.74800000    3.84800000
 H                -11.65900000   -0.36900000    1.68800000
 H                 -7.57600000   -0.11100000    2.36200000
 H                 -6.55600000   -1.41900000    4.28900000
 H                 -4.41100000   -1.85900000    3.14300000
 H                 -1.64900000    1.96300000   -0.32000000
 H                  0.07400000    2.23200000   -2.10000000
 H                  1.82700000    0.41200000   -2.35400000
 H                  3.96500000   -2.50600000   -3.53400000
 H                  6.19600000   -3.33600000   -4.23400000
 H                  7.76000000   -5.85500000   -4.04800000
 H                 10.14400000   -6.17700000   -4.65400000
 H                 11.92300000   -4.81300000   -3.59400000
 C                  8.90700000   -4.42400000    2.77300000
 C                  9.35800000   -3.26700000    2.19600000
 N                  8.53200000   -2.20200000    2.00000000
 C                  7.27500000   -2.25300000    2.40600000
 C                  6.72400000   -3.37800000    3.05400000
 C                  5.36400000   -3.41500000    3.50200000
 C                  4.48600000   -2.22600000    3.41900000
 C                  4.86200000   -0.99600000    3.98400000
 C                  4.03700000    0.11700000    3.88000000
 C                  2.80800000    0.03000000    3.19900000
 C                  2.01200000    1.19100000    2.98200000
 C                  1.37400000    2.19300000    2.71300000
 C                  0.72900000    3.40100000    2.29600000
 N                 -0.53900000    3.32200000    1.87900000
 C                 -1.11700000    4.42300000    1.38600000
 C                 -2.47000000    4.29900000    0.92700000
 C                 -3.61600000    4.20800000    0.52300000
 C                 -4.94700000    4.10200000    0.02300000
 C                 -5.26600000    4.60300000   -1.25100000
 C                 -6.54800000    4.46000000   -1.76300000
 C                 -7.56100000    3.83200000   -1.02000000
 C                 -8.91300000    3.69300000   -1.60700000
 C                 -9.48900000    4.76900000   -2.25800000
 C                -10.77500000    4.69300000   -2.83300000
 C                -11.51400000    3.53600000   -2.75900000
 C                -10.97100000    2.40200000   -2.11000000
 C                -11.68200000    1.18100000   -2.00200000
 C                -11.11800000    0.11200000   -1.36000000
 N                 -9.86400000    0.18400000   -0.83700000
 C                 -9.15600000    1.29500000   -0.94400000
 C                 -9.66000000    2.47000000   -1.54200000
 C                 -7.25100000    3.38100000    0.27400000
 C                 -5.96400000    3.49800000    0.78300000
 C                 -0.45300000    5.65800000    1.29500000
 C                  0.85300000    5.74100000    1.76500000
 C                  1.45900000    4.60300000    2.28200000
 C                  2.40900000   -1.21100000    2.67000000
 C                  3.23900000   -2.31800000    2.78400000
 C                  4.87900000   -4.60500000    4.01200000
 C                  5.70200000   -5.74600000    4.13800000
 C                  7.02500000   -5.71100000    3.76100000
 C                  7.56100000   -4.52600000    3.20600000
 H                  9.58600000   -5.26900000    2.89200000
 H                 10.38800000   -3.15500000    1.85600000
 H                  6.65300000   -1.38100000    2.20000000
 H                  5.80800000   -0.91100000    4.52500000
 H                  4.34500000    1.06800000    4.32000000
 H                 -4.49200000    5.08600000   -1.84600000
 H                 -6.76400000    4.82400000   -2.76900000
 H                 -8.94500000    5.71500000   -2.30700000
 H                -11.18800000    5.57400000   -3.32900000
 H                -12.51500000    3.47600000   -3.19000000
 H                -12.68300000    1.09200000   -2.42500000
 H                -11.64000000   -0.84000000   -1.24600000
 H                 -8.14500000    1.27300000   -0.53600000
 H                 -8.02900000    2.95000000    0.90600000
 H                 -5.74200000    3.12400000    1.78300000
 H                 -0.96100000    6.52200000    0.86600000
 H                  1.40000000    6.68500000    1.71700000
 H                  2.48800000    4.62000000    2.64500000
 H                  1.46300000   -1.28800000    2.12900000
 H                  2.92700000   -3.26700000    2.34200000
 H                  3.84300000   -4.65400000    4.35400000
 H                  5.27900000   -6.66000000    4.55900000
 H                  7.66700000   -6.58500000    3.87700000
 C                  8.69800000    1.04500000    4.91500000
 C                  9.09400000    0.34500000    3.80900000
 N                  8.56600000    0.60000000    2.57900000
 C                  7.64200000    1.53400000    2.43100000
 C                  7.14500000    2.29500000    3.51000000
 C                  6.14200000    3.30200000    3.34600000
 C                  5.44700000    3.57500000    2.06600000
 C                  5.32900000    4.90100000    1.62000000
 C                  4.49900000    5.22400000    0.55600000
 C                  3.74500000    4.22300000   -0.08300000
 C                  2.71600000    4.59100000   -0.99400000
 C                  1.74100000    4.94700000   -1.63300000
 C                  0.51000000    5.35200000   -2.23600000
 N                 -0.36600000    4.38000000   -2.50800000
 C                 -1.57500000    4.70600000   -2.97900000
 C                 -2.47000000    3.61200000   -3.19700000
 C                 -3.18900000    2.63800000   -3.32400000
 C                 -3.94800000    1.44300000   -3.47800000
 C                 -3.27200000    0.21100000   -3.54500000
 C                 -3.98300000   -0.96400000   -3.72900000
 C                 -5.38100000   -0.96000000   -3.82800000
 C                 -6.07800000   -2.24500000   -4.06200000
 C                 -5.64400000   -3.07600000   -5.08000000
 C                 -6.26600000   -4.31500000   -5.34500000
 C                 -7.33400000   -4.74400000   -4.59200000
 C                 -7.80200000   -3.94300000   -3.52400000
 C                 -8.87500000   -4.34100000   -2.69000000
 C                 -9.25600000   -3.55400000   -1.63800000
 N                 -8.61500000   -2.38500000   -1.35900000
 C                 -7.62100000   -1.96900000   -2.12400000
 C                 -7.16800000   -2.69100000   -3.24900000
 C                 -6.05600000    0.26900000   -3.74700000
 C                 -5.35100000    1.45500000   -3.58000000
 C                 -1.95400000    6.03500000   -3.22700000
 C                 -1.03100000    7.04300000   -2.96400000
 C                  0.22100000    6.71000000   -2.45800000
 C                  3.92700000    2.88400000    0.30200000
 C                  4.77300000    2.56700000    1.35800000
 C                  5.77600000    4.03900000    4.45900000
 C                  6.33900000    3.80200000    5.73100000
 C                  7.28300000    2.81900000    5.91000000
 C                  7.70900000    2.05300000    4.80100000
 H                  9.15000000    0.82800000    5.88400000
 H                  9.84800000   -0.44100000    3.86300000
 H                  7.26900000    1.71000000    1.42100000
 H                  5.87600000    5.69300000    2.13600000
 H                  4.38600000    6.26400000    0.24500000
 H                 -2.18400000    0.18500000   -3.45300000
 H                 -3.44300000   -1.90900000   -3.77900000
 H                 -4.81200000   -2.75400000   -5.71000000
 H                 -5.89500000   -4.93000000   -6.16700000
 H                 -7.82400000   -5.69700000   -4.79900000
 H                 -9.39500000   -5.28200000   -2.87800000
 H                -10.07300000   -3.83100000   -0.97100000
 H                 -7.13400000   -1.03500000   -1.83800000
 H                 -7.14300000    0.30700000   -3.85200000
 H                 -5.88600000    2.40400000   -3.53300000
 H                 -2.94600000    6.26200000   -3.61900000
 H                 -1.29100000    8.08800000   -3.14600000
 H                  0.96300000    7.47400000   -2.22600000
 H                  3.35300000    2.09700000   -0.19100000
 H                  4.84200000    1.52800000    1.68600000
 H                  5.00500000    4.80600000    4.35600000
 H                  6.00500000    4.40300000    6.57900000
 H                  7.71400000    2.62100000    6.89300000
 C                 11.03500000    3.08500000   -0.20800000
 C                 10.78300000    1.86200000    0.35200000
 N                  9.68200000    1.13900000    0.00500000
 C                  8.84800000    1.59200000   -0.91500000
 C                  9.02400000    2.83300000   -1.56200000
 C                  8.09000000    3.33000000   -2.52500000
 C                  6.94500000    2.51500000   -2.99000000
 C                  7.13800000    1.23700000   -3.53800000
 C                  6.06200000    0.49300000   -4.00400000
 C                  4.75600000    1.00900000   -3.93000000
 C                  3.64600000    0.24300000   -4.39500000
 C                  2.69000000   -0.41500000   -4.76300000
 C                  1.54400000   -1.20600000   -5.11400000
 N                  0.81000000   -1.65600000   -4.09200000
 C                 -0.27600000   -2.38900000   -4.35700000
 C                 -1.05400000   -2.82600000   -3.23800000
 C                 -1.76400000   -3.15100000   -2.30300000
 C                 -2.61900000   -3.48700000   -1.21500000
 C                 -3.90700000   -4.00700000   -1.44600000
 C                 -4.74000000   -4.31700000   -0.38000000
 C                 -4.31200000   -4.12700000    0.94500000
 C                 -5.15300000   -4.52400000    2.09600000
 C                 -4.61500000   -5.33200000    3.08200000
 C                 -5.38600000   -5.78800000    4.17300000
 C                 -6.71400000   -5.44900000    4.28900000
 C                 -7.30300000   -4.60000000    3.32400000
 C                 -8.65700000   -4.19100000    3.39900000
 C                 -9.16300000   -3.31900000    2.47500000
 N                 -8.38600000   -2.80400000    1.48000000
 C                 -7.12500000   -3.18500000    1.35900000
 C                 -6.51900000   -4.11400000    2.23300000
 C                 -3.02700000   -3.61000000    1.16700000
 C                 -2.19100000   -3.28700000    0.10900000
 C                 -0.67400000   -2.70900000   -5.66800000
 C                  0.09900000   -2.24000000   -6.72500000
 C                  1.22900000   -1.47500000   -6.45500000
 C                  4.55900000    2.28700000   -3.37900000
 C                  5.64200000    3.02800000   -2.92300000
 C                  8.28100000    4.60800000   -3.01600000
 C                  9.38600000    5.39400000   -2.62200000
 C                 10.31500000    4.91500000   -1.72800000
 C                 10.14600000    3.62600000   -1.17000000
 H                 11.91300000    3.65200000    0.10600000
 H                 11.43300000    1.42300000    1.11000000
 H                  7.97900000    0.97200000   -1.14000000
 H                  8.14700000    0.82700000   -3.62400000
 H                  6.22800000   -0.49600000   -4.43500000
 H                 -4.24800000   -4.17600000   -2.47000000
 H                 -5.72400000   -4.74700000   -0.58100000
 H                 -3.57600000   -5.65500000    2.99500000
 H                 -4.92000000   -6.43600000    4.91900000
 H                 -7.32000000   -5.81700000    5.11800000
 H                 -9.29800000   -4.56200000    4.20000000
 H                -10.19900000   -2.98400000    2.51000000
 H                 -6.54400000   -2.72600000    0.55800000
 H                 -2.68000000   -3.44300000    2.19000000
 H                 -1.20600000   -2.85300000    0.29800000
 H                 -1.56900000   -3.30900000   -5.83900000
 H                 -0.18000000   -2.46900000   -7.75500000
 H                  1.85900000   -1.08600000   -7.25600000
 H                  3.54900000    2.69700000   -3.30600000
 H                  5.47400000    4.01600000   -2.48900000
 H                  7.57600000    5.00700000   -3.74800000
 H                  9.50400000    6.39200000   -3.04900000
 H                 11.17600000    5.51700000   -1.43400000



