%nprocshared=48
%mem=120GB
%chk=m3_l1_opt.chk
# SP PBE1PBE/def2svp empiricaldispersion=GD3BJ scrf=(solvent=dmso) 

m3_l1

6 1
 Pd                  6.49300000   -0.34300000    1.83200000
 Pd                 -4.57200000   -7.86400000    0.81300000
 Pd                 -5.06900000    5.75800000   -0.05100000
 C                  5.47800000    1.41600000    3.86300000
 N                  6.60700000    1.18700000    3.17900000
 C                  7.44100000    2.21800000    2.99000000
 C                  7.13000000    3.51000000    3.37100000
 C                  5.88700000    3.78400000    3.95300000
 C                  5.37400000    5.13600000    4.16400000
 C                  6.18600000    6.18100000    4.63100000
 C                  5.69500000    7.46000000    4.80800000
 C                  4.36900000    7.69400000    4.47300000
 O                  3.70800000    8.87300000    4.52300000
 C                  2.46200000    8.65000000    4.06500000
 C                  1.44000000    9.57800000    3.91000000
 C                  0.24500000    9.13700000    3.38000000
 C                  0.03700000    7.79500000    3.00400000
 C                 -1.21600000    7.36900000    2.39200000
 C                 -1.25700000    6.24100000    1.55400000
 C                 -2.43700000    5.84200000    0.98000000
 N                 -3.59300000    6.50200000    1.14600000
 C                 -3.58100000    7.58300000    1.93300000
 C                 -2.44100000    8.03100000    2.57100000
 C                  1.06700000    6.86700000    3.19400000
 C                  2.27400000    7.29300000    3.71100000
 C                  3.53700000    6.65900000    3.98800000
 C                  4.03600000    5.37700000    3.85000000
 C                  5.08800000    2.67400000    4.26200000
 H                  4.86300000    0.55300000    4.10600000
 H                  8.38400000    1.99700000    2.49800000
 H                  7.82800000    4.30700000    3.17000000
 H                  7.21100000    5.97300000    4.89500000
 H                  6.31700000    8.25400000    5.18600000
 H                  1.58600000   10.60900000    4.18700000
 H                 -0.53800000    9.86000000    3.22000000
 H                 -0.35800000    5.68800000    1.33600000
 H                 -2.46400000    4.95500000    0.34200000
 H                 -4.52700000    8.10000000    2.05900000
 H                 -2.51100000    8.89100000    3.21700000
 H                  0.92500000    5.82000000    2.97600000
 H                  3.40800000    4.58700000    3.46500000
 H                  4.16900000    2.80300000    4.81000000
 C                  4.98700000    1.71300000    0.59300000
 N                  6.18000000    1.11700000    0.44500000
 C                  7.03100000    1.64500000   -0.44100000
 C                  6.72900000    2.76300000   -1.19300000
 C                  5.50000000    3.42100000   -1.03300000
 C                  5.12800000    4.63000000   -1.75900000
 C                  6.11100000    5.49400000   -2.28100000
 C                  5.79300000    6.67100000   -2.92700000
 C                  4.45000000    7.00000000   -3.04900000
 O                  3.92700000    8.10900000   -3.60400000
 C                  2.58300000    8.02600000   -3.47300000
 C                  1.64300000    8.96900000   -3.86300000
 C                  0.31600000    8.70700000   -3.58200000
 C                 -0.08500000    7.51500000   -2.95800000
 C                 -1.48300000    7.24100000   -2.63000000
 C                 -1.99700000    5.94400000   -2.76300000
 C                 -3.23400000    5.64100000   -2.24300000
 N                 -3.99300000    6.54000000   -1.60000000
 C                 -3.57400000    7.81100000   -1.58400000
 C                 -2.35000000    8.20100000   -2.09500000
 C                  0.86700000    6.56200000   -2.59100000
 C                  2.20300000    6.82500000   -2.83200000
 C                  3.44000000    6.14500000   -2.54600000
 C                  3.77800000    4.96400000   -1.91400000
 C                  4.62500000    2.84500000   -0.09500000
 H                  4.29800000    1.26000000    1.30900000
 H                  7.98700000    1.14300000   -0.55100000
 H                  7.45200000    3.11400000   -1.91100000
 H                  7.15300000    5.25400000   -2.14800000
 H                  6.55700000    7.32200000   -3.31700000
 H                  1.94500000    9.87600000   -4.35900000
 H                 -0.43300000    9.42100000   -3.88500000
 H                 -1.42500000    5.18300000   -3.26900000
 H                 -3.64000000    4.63700000   -2.34900000
 H                 -4.24000000    8.53600000   -1.12500000
 H                 -2.05000000    9.23400000   -2.03000000
 H                  0.57200000    5.65400000   -2.08800000
 H                  2.99400000    4.30100000   -1.58100000
 H                  3.66900000    3.29400000    0.11200000
 C                  5.21100000   -2.14900000    3.52100000
 N                  6.47700000   -1.83100000    3.21400000
 C                  7.44100000   -2.67000000    3.60300000
 C                  7.17600000   -3.86700000    4.24400000
 C                  5.85500000   -4.24500000    4.51700000
 C                  5.46400000   -5.54400000    5.05500000
 C                  6.29100000   -6.29300000    5.91100000
 C                  5.91800000   -7.53200000    6.39700000
 C                  4.68300000   -8.03700000    6.01000000
 O                  4.12900000   -9.22600000    6.33500000
 C                  2.93000000   -9.29200000    5.72000000
 C                  2.00500000  -10.32800000    5.74800000
 C                  0.83600000  -10.17000000    5.03000000
 C                  0.55100000   -9.00400000    4.29100000
 C                 -0.68600000   -8.84300000    3.53600000
 C                 -0.76700000   -7.89700000    2.49800000
 C                 -1.94800000   -7.69000000    1.83200000
 N                 -3.06200000   -8.39500000    2.07800000
 C                 -3.00400000   -9.32800000    3.03300000
 C                 -1.86400000   -9.56600000    3.77900000
 C                  1.49000000   -7.96800000    4.28200000
 C                  2.67200000   -8.11900000    4.97500000
 C                  3.83400000   -7.29400000    5.15900000
 C                  4.22100000   -6.06100000    4.67900000
 C                  4.86800000   -3.30400000    4.17700000
 H                  4.43200000   -1.44600000    3.21300000
 H                  8.46100000   -2.37400000    3.38300000
 H                  7.99700000   -4.51800000    4.50000000
 H                  7.23600000   -5.88100000    6.22600000
 H                  6.56200000   -8.09300000    7.05400000
 H                  2.19900000  -11.22600000    6.31000000
 H                  0.13200000  -10.98700000    5.02300000
 H                  0.09700000   -7.32800000    2.20000000
 H                 -2.00600000   -6.92400000    1.05600000
 H                 -3.91100000   -9.89500000    3.21300000
 H                 -1.90400000  -10.30900000    4.56000000
 H                  1.30000000   -7.03300000    3.77900000
 H                  3.58100000   -5.53700000    3.98600000
 H                  3.83500000   -3.47900000    4.43100000
 C                  5.04500000   -2.10600000    0.02000000
 N                  6.27400000   -1.82600000    0.46800000
 C                  7.25200000   -2.70000000    0.19800000
 C                  7.03000000   -3.88200000   -0.47700000
 C                  5.74100000   -4.21500000   -0.92300000
 C                  5.44100000   -5.48100000   -1.58300000
 C                  6.43900000   -6.16500000   -2.30700000
 C                  6.20600000   -7.38100000   -2.91300000
 C                  4.93800000   -7.93100000   -2.78900000
 O                  4.51700000   -9.11200000   -3.27700000
 C                  3.21600000   -9.24300000   -2.93800000
 C                  2.38300000  -10.31300000   -3.22900000
 C                  1.07400000  -10.24400000   -2.79600000
 C                  0.58300000   -9.11700000   -2.11800000
 C                 -0.82200000   -9.01700000   -1.72300000
 C                 -1.50900000   -7.80900000   -1.90700000
 C                 -2.77400000   -7.65400000   -1.39000000
 N                 -3.39800000   -8.61300000   -0.69000000
 C                 -2.80200000   -9.80900000   -0.60600000
 C                 -1.54100000  -10.05400000   -1.12000000
 C                  1.43100000   -8.05000000   -1.82200000
 C                  2.75700000   -8.12000000   -2.21000000
 C                  3.90600000   -7.25500000   -2.09400000
 C                  4.16100000   -6.03600000   -1.49000000
 C                  4.74600000   -3.25700000   -0.67300000
 H                  4.27300000   -1.36400000    0.22000000
 H                  8.24800000   -2.43600000    0.54500000
 H                  7.85700000   -4.55500000   -0.63400000
 H                  7.41100000   -5.71400000   -2.42500000
 H                  6.97600000   -7.89200000   -3.46500000
 H                  2.75100000  -11.16300000   -3.77900000
 H                  0.40100000  -11.05500000   -3.02600000
 H                 -1.04900000   -7.00300000   -2.45600000
 H                 -3.31600000   -6.72500000   -1.55000000
 H                 -3.35300000  -10.59200000   -0.09500000
 H                 -1.10000000  -11.03200000   -1.00700000
 H                  1.06600000   -7.19400000   -1.27200000
 H                  3.38300000   -5.55000000   -0.92100000
 H                  3.74100000   -3.40500000   -1.03400000
 C                 -5.10900000   -5.77400000    2.68600000
 N                 -5.61200000   -6.95100000    2.29300000
 C                 -6.88300000   -7.22900000    2.60600000
 C                 -7.70200000   -6.33000000    3.26100000
 C                 -7.21600000   -5.06300000    3.61100000
 C                 -8.05000000   -4.01800000    4.19600000
 C                 -9.09300000   -4.33000000    5.08600000
 C                 -9.87800000   -3.35300000    5.66300000
 C                 -9.62100000   -2.03400000    5.32100000
 O                -10.26700000   -0.93600000    5.76600000
 C                 -9.68800000    0.13200000    5.18000000
 C                -10.02400000    1.46700000    5.35200000
 C                 -9.30100000    2.40700000    4.64700000
 C                 -8.24400000    2.04600000    3.79100000
 C                 -7.48500000    3.05700000    3.06200000
 C                 -6.12500000    2.86400000    2.77200000
 C                 -5.44600000    3.77600000    1.99900000
 N                 -6.02300000    4.87800000    1.50300000
 C                 -7.30000000    5.11600000    1.82000000
 C                 -8.05100000    4.24900000    2.58800000
 C                 -7.91300000    0.69900000    3.63000000
 C                 -8.63600000   -0.25800000    4.31800000
 C                 -8.59100000   -1.69400000    4.41300000
 C                 -7.80200000   -2.68500000    3.85900000
 C                 -5.86000000   -4.82400000    3.33700000
 H                 -4.05500000   -5.59500000    2.47200000
 H                 -7.25300000   -8.20600000    2.31000000
 H                 -8.72500000   -6.60000000    3.46600000
 H                 -9.26100000   -5.35900000    5.36100000
 H                -10.66400000   -3.59900000    6.35800000
 H                -10.82300000    1.75300000    6.01600000
 H                 -9.53100000    3.45000000    4.79000000
 H                 -5.60100000    2.00700000    3.16400000
 H                 -4.39100000    3.63100000    1.77000000
 H                 -7.73400000    6.03500000    1.43400000
 H                 -9.08400000    4.48300000    2.79000000
 H                 -7.13100000    0.39600000    2.94900000
 H                 -7.03200000   -2.42800000    3.14600000
 H                 -5.39700000   -3.90100000    3.64800000
 C                 -5.62900000   -5.74300000   -0.67200000
 N                 -5.94200000   -7.02600000   -0.44000000
 C                 -7.11300000   -7.47300000   -0.90300000
 C                 -8.00500000   -6.66400000   -1.58500000
 C                 -7.69900000   -5.31800000   -1.83100000
 C                 -8.57600000   -4.38500000   -2.53100000
 C                 -9.51700000   -4.82700000   -3.48200000
 C                -10.29600000   -3.95000000   -4.21000000
 C                -10.12500000   -2.59100000   -3.98600000
 O                -10.73100000   -1.56600000   -4.62200000
 C                -10.21000000   -0.42300000   -4.12600000
 C                -10.49100000    0.87700000   -4.52100000
 C                 -9.78300000    1.90000000   -3.92000000
 C                 -8.80600000    1.65800000   -2.93700000
 C                 -7.99500000    2.73500000   -2.38000000
 C                 -6.68700000    2.46700000   -1.94200000
 C                 -5.92900000    3.45800000   -1.37200000
 N                 -6.36400000    4.71900000   -1.22600000
 C                 -7.59000000    5.01000000   -1.67100000
 C                 -8.42200000    4.06300000   -2.24200000
 C                 -8.56600000    0.34600000   -2.51800000
 C                 -9.25800000   -0.68900000   -3.11500000
 C                 -9.20400000   -2.12300000   -3.02000000
 C                 -8.44500000   -3.01400000   -2.28800000
 C                 -6.44800000   -4.88400000   -1.36000000
 H                 -4.67100000   -5.38700000   -0.28100000
 H                 -7.34200000   -8.51700000   -0.71800000
 H                 -8.94400000   -7.08300000   -1.90800000
 H                 -9.60900000   -5.88100000   -3.68500000
 H                -11.00200000   -4.30300000   -4.94300000
 H                -11.22400000    1.07600000   -5.28600000
 H                 -9.95900000    2.91100000   -4.25300000
 H                 -6.26000000    1.48500000   -2.06600000
 H                 -4.92200000    3.23500000   -1.00900000
 H                 -7.91500000    6.03900000   -1.56200000
 H                 -9.40900000    4.35800000   -2.55900000
 H                 -7.86900000    0.13200000   -1.72200000
 H                 -7.78200000   -2.64000000   -1.52300000
 H                 -6.10700000   -3.88000000   -1.55000000


