%chk=1_B_gas.chk
%mem=60000mb
%nprocshared=32
#P B3LYP/GenECP opt=(Tight,steep) SCF=(YQC,MaxCycle=900) int=(Grid=Ultrafine) EmpiricalDispersion=GD3

1_B_gas

4 1
 Pd(PDBName=PD,ResName=LIG,ResNum=1)                   6.58800000    1.39400000   -0.27700000
 Pd(PDBName=PD,ResName=LIG,ResNum=1)                  -6.08300000    1.58600000    0.59800000
 N(PDBName=N,ResName=LIG,ResNum=1)                    -5.97600000    3.58000000    0.81400000
 C(PDBName=C,ResName=LIG,ResNum=1)                    -7.04600000    4.36700000    0.94000000
 C(PDBName=C,ResName=LIG,ResNum=1)                    -6.93300000    5.74800000    1.02500000
 H(PDBName=H,ResName=LIG,ResNum=1)                    -8.01800000    3.88400000    0.97000000
 C(PDBName=C,ResName=LIG,ResNum=1)                    -5.68300000    6.33100000    0.97000000
 H(PDBName=H,ResName=LIG,ResNum=1)                    -7.81900000    6.35300000    1.13100000
 C(PDBName=C,ResName=LIG,ResNum=1)                    -4.55600000    5.50700000    0.82800000
 H(PDBName=H,ResName=LIG,ResNum=1)                    -5.56200000    7.40100000    1.02900000
 C(PDBName=C,ResName=LIG,ResNum=1)                    -4.76300000    4.12700000    0.76000000
 C(PDBName=C,ResName=LIG,ResNum=1)                    -3.26200000    6.05000000    0.74500000
 H(PDBName=H,ResName=LIG,ResNum=1)                    -3.91300000    3.45300000    0.65600000
 C(PDBName=C,ResName=LIG,ResNum=1)                    -2.16300000    6.55100000    0.66300000
 C(PDBName=C,ResName=LIG,ResNum=1)                    -0.91000000    7.18900000    0.56700000
 C(PDBName=C,ResName=LIG,ResNum=1)                     0.26000000    6.45200000    0.38600000
 C(PDBName=C,ResName=LIG,ResNum=1)                     1.48100000    7.11400000    0.28600000
 H(PDBName=H,ResName=LIG,ResNum=1)                     0.21800000    5.37400000    0.32100000
 C(PDBName=C,ResName=LIG,ResNum=1)                     2.68900000    6.41100000    0.10200000
 C(PDBName=C,ResName=LIG,ResNum=1)                     1.52700000    8.51200000    0.37000000
 C(PDBName=C,ResName=LIG,ResNum=1)                     0.36300000    9.23500000    0.55300000
 H(PDBName=H,ResName=LIG,ResNum=1)                     2.47800000    9.01600000    0.29200000
 C(PDBName=C,ResName=LIG,ResNum=1)                    -0.85400000    8.58500000    0.65200000
 H(PDBName=H,ResName=LIG,ResNum=1)                     0.40400000   10.31000000    0.61800000
 H(PDBName=H,ResName=LIG,ResNum=1)                    -1.76400000    9.14600000    0.79300000
 C(PDBName=C,ResName=LIG,ResNum=1)                     3.75600000    5.86200000   -0.05500000
 C(PDBName=C,ResName=LIG,ResNum=1)                     5.04400000    5.32500000   -0.23300000
 C(PDBName=C,ResName=LIG,ResNum=1)                     6.14500000    6.17800000   -0.42500000
 C(PDBName=C,ResName=LIG,ResNum=1)                     5.28900000    3.95400000   -0.21600000
 H(PDBName=H,ResName=LIG,ResNum=1)                     5.99700000    7.24600000   -0.45200000
 C(PDBName=C,ResName=LIG,ResNum=1)                     7.39700000    5.62900000   -0.56500000
 C(PDBName=C,ResName=LIG,ResNum=1)                     7.56400000    4.24200000   -0.52200000
 H(PDBName=H,ResName=LIG,ResNum=1)                     8.26100000    6.25800000   -0.70300000
 N(PDBName=N,ResName=LIG,ResNum=1)                     6.51100000    3.43500000   -0.36300000
 C(PDBName=C,ResName=LIG,ResNum=1)                     8.92300000    3.63900000   -0.64600000
 H(PDBName=H,ResName=LIG,ResNum=1)                     4.46300000    3.25900000   -0.06200000
 H(PDBName=H,ResName=LIG,ResNum=1)                     9.62200000    4.14700000    0.01700000
 H(PDBName=H,ResName=LIG,ResNum=1)                     9.29800000    3.76600000   -1.66200000
 H(PDBName=H,ResName=LIG,ResNum=1)                     8.90000000    2.56900000   -0.40100000
 N(PDBName=N,ResName=LIG,ResNum=1)                     6.59200000    1.54700000    1.74300000
 C(PDBName=C,ResName=LIG,ResNum=1)                     7.65700000    1.84100000    2.49000000
 C(PDBName=C,ResName=LIG,ResNum=1)                     7.58000000    1.96400000    3.87000000
 H(PDBName=H,ResName=LIG,ResNum=1)                     8.60300000    1.98600000    1.98200000
 C(PDBName=C,ResName=LIG,ResNum=1)                     6.36400000    1.78600000    4.49800000
 H(PDBName=H,ResName=LIG,ResNum=1)                     8.46700000    2.19500000    4.43700000
 C(PDBName=C,ResName=LIG,ResNum=1)                     5.23500000    1.49200000    3.71700000
 H(PDBName=H,ResName=LIG,ResNum=1)                     6.26800000    1.87300000    5.56900000
 C(PDBName=C,ResName=LIG,ResNum=1)                     5.40900000    1.38200000    2.33400000
 C(PDBName=C,ResName=LIG,ResNum=1)                     3.98000000    1.31600000    4.32600000
 H(PDBName=H,ResName=LIG,ResNum=1)                     4.55600000    1.14500000    1.69800000
 C(PDBName=C,ResName=LIG,ResNum=1)                     2.94100000    1.18400000    4.93200000
 C(PDBName=C,ResName=LIG,ResNum=1)                     1.76600000    1.03200000    5.69600000
 C(PDBName=C,ResName=LIG,ResNum=1)                     0.50400000    1.07400000    5.10600000
 C(PDBName=C,ResName=LIG,ResNum=1)                    -0.63200000    0.93700000    5.90100000
 H(PDBName=H,ResName=LIG,ResNum=1)                     0.40800000    1.22100000    4.03900000
 C(PDBName=C,ResName=LIG,ResNum=1)                    -1.92400000    0.99300000    5.33700000
 C(PDBName=C,ResName=LIG,ResNum=1)                    -0.50200000    0.74900000    7.28200000
 C(PDBName=C,ResName=LIG,ResNum=1)                     0.75400000    0.70300000    7.85900000
 H(PDBName=H,ResName=LIG,ResNum=1)                    -1.38800000    0.64300000    7.88900000
 C(PDBName=C,ResName=LIG,ResNum=1)                     1.88600000    0.84700000    7.07900000
 H(PDBName=H,ResName=LIG,ResNum=1)                     0.85000000    0.55900000    8.92300000
 H(PDBName=H,ResName=LIG,ResNum=1)                     2.86700000    0.81500000    7.52700000
 C(PDBName=C,ResName=LIG,ResNum=1)                    -3.05000000    1.04200000    4.90100000
 C(PDBName=C,ResName=LIG,ResNum=1)                    -4.37400000    1.10200000    4.42700000
 C(PDBName=C,ResName=LIG,ResNum=1)                    -5.46900000    1.00000000    5.30100000
 C(PDBName=C,ResName=LIG,ResNum=1)                    -4.64900000    1.27000000    3.07100000
 H(PDBName=H,ResName=LIG,ResNum=1)                    -5.30100000    0.86800000    6.35800000
 C(PDBName=C,ResName=LIG,ResNum=1)                    -6.74500000    1.07100000    4.78900000
 C(PDBName=C,ResName=LIG,ResNum=1)                    -6.94100000    1.24300000    3.41600000
 H(PDBName=H,ResName=LIG,ResNum=1)                    -7.60200000    0.99700000    5.43800000
 N(PDBName=N,ResName=LIG,ResNum=1)                    -5.89200000    1.33700000    2.59300000
 C(PDBName=C,ResName=LIG,ResNum=1)                    -8.31400000    1.32800000    2.83100000
 H(PDBName=H,ResName=LIG,ResNum=1)                    -3.83200000    1.35300000    2.35300000
 H(PDBName=H,ResName=LIG,ResNum=1)                    -8.86600000    2.15000000    3.28700000
 H(PDBName=H,ResName=LIG,ResNum=1)                    -8.87000000    0.41500000    3.04800000
 H(PDBName=H,ResName=LIG,ResNum=1)                    -8.27500000    1.47900000    1.73600000
 N(PDBName=N,ResName=LIG,ResNum=1)                    -6.06700000   -0.40300000    0.32100000
 C(PDBName=C,ResName=LIG,ResNum=1)                    -7.17400000   -1.14000000    0.21600000
 C(PDBName=C,ResName=LIG,ResNum=1)                    -7.12500000   -2.50400000   -0.03400000
 H(PDBName=H,ResName=LIG,ResNum=1)                    -8.12400000   -0.62800000    0.33200000
 C(PDBName=C,ResName=LIG,ResNum=1)                    -5.89900000   -3.12100000   -0.18800000
 H(PDBName=H,ResName=LIG,ResNum=1)                    -8.04000000   -3.06900000   -0.10800000
 C(PDBName=C,ResName=LIG,ResNum=1)                    -4.73200000   -2.34800000   -0.08800000
 H(PDBName=H,ResName=LIG,ResNum=1)                    -5.82700000   -4.17900000   -0.38600000
 C(PDBName=C,ResName=LIG,ResNum=1)                    -4.87700000   -0.98200000    0.17400000
 C(PDBName=C,ResName=LIG,ResNum=1)                    -3.46000000   -2.92400000   -0.25000000
 H(PDBName=H,ResName=LIG,ResNum=1)                    -3.99500000   -0.34800000    0.26500000
 C(PDBName=C,ResName=LIG,ResNum=1)                    -2.38200000   -3.45100000   -0.40200000
 C(PDBName=C,ResName=LIG,ResNum=1)                    -1.15200000   -4.11600000   -0.58200000
 C(PDBName=C,ResName=LIG,ResNum=1)                     0.05600000   -3.43000000   -0.47100000
 C(PDBName=C,ResName=LIG,ResNum=1)                     1.25500000   -4.11800000   -0.64000000
 H(PDBName=H,ResName=LIG,ResNum=1)                     0.06300000   -2.37300000   -0.24700000
 C(PDBName=C,ResName=LIG,ResNum=1)                     2.50000000   -3.46700000   -0.51000000
 C(PDBName=C,ResName=LIG,ResNum=1)                     1.24100000   -5.48900000   -0.92500000
 C(PDBName=C,ResName=LIG,ResNum=1)                     0.03800000   -6.16000000   -1.04100000
 H(PDBName=H,ResName=LIG,ResNum=1)                     2.17500000   -6.01400000   -1.05500000
 C(PDBName=C,ResName=LIG,ResNum=1)                    -1.15700000   -5.48600000   -0.87000000
 H(PDBName=H,ResName=LIG,ResNum=1)                     0.03100000   -7.21600000   -1.26300000
 H(PDBName=H,ResName=LIG,ResNum=1)                    -2.09800000   -6.00800000   -0.95400000
 C(PDBName=C,ResName=LIG,ResNum=1)                     3.59300000   -2.96100000   -0.39700000
 C(PDBName=C,ResName=LIG,ResNum=1)                     4.90300000   -2.47500000   -0.22700000
 C(PDBName=C,ResName=LIG,ResNum=1)                     5.95800000   -3.36400000    0.03600000
 C(PDBName=C,ResName=LIG,ResNum=1)                     5.20900000   -1.11800000   -0.30400000
 H(PDBName=H,ResName=LIG,ResNum=1)                     5.76600000   -4.42400000    0.08900000
 C(PDBName=C,ResName=LIG,ResNum=1)                     7.22000000   -2.85800000    0.23400000
 C(PDBName=C,ResName=LIG,ResNum=1)                     7.44500000   -1.48000000    0.16300000
 H(PDBName=H,ResName=LIG,ResNum=1)                     8.04800000   -3.51300000    0.45100000
 N(PDBName=N,ResName=LIG,ResNum=1)                     6.44500000   -0.64100000   -0.12300000
 C(PDBName=C,ResName=LIG,ResNum=1)                     8.81000000   -0.93500000    0.42500000
 H(PDBName=H,ResName=LIG,ResNum=1)                     4.42000000   -0.39900000   -0.52200000
 H(PDBName=H,ResName=LIG,ResNum=1)                     9.16500000   -1.27900000    1.39600000
 H(PDBName=H,ResName=LIG,ResNum=1)                     8.81000000    0.16200000    0.41700000
 H(PDBName=H,ResName=LIG,ResNum=1)                     9.51600000   -1.30400000   -0.31900000
 N(PDBName=N,ResName=LIG,ResNum=1)                    -6.17100000    1.83800000   -1.39100000
 C(PDBName=C,ResName=LIG,ResNum=1)                    -7.32500000    1.96300000   -2.04700000
 C(PDBName=C,ResName=LIG,ResNum=1)                    -7.36600000    2.15500000   -3.42200000
 H(PDBName=H,ResName=LIG,ResNum=1)                    -8.23700000    1.90900000   -1.45700000
 C(PDBName=C,ResName=LIG,ResNum=1)                    -6.18400000    2.21900000   -4.13300000
 H(PDBName=H,ResName=LIG,ResNum=1)                    -8.31600000    2.25100000   -3.92200000
 C(PDBName=C,ResName=LIG,ResNum=1)                    -4.96800000    2.08800000   -3.44500000
 H(PDBName=H,ResName=LIG,ResNum=1)                    -6.18400000    2.36800000   -5.20200000
 C(PDBName=C,ResName=LIG,ResNum=1)                    -5.02300000    1.89600000   -2.06100000
 C(PDBName=C,ResName=LIG,ResNum=1)                    -3.73000000    2.14500000   -4.10700000
 H(PDBName=H,ResName=LIG,ResNum=1)                    -4.10100000    1.78700000   -1.48900000
 C(PDBName=C,ResName=LIG,ResNum=1)                    -2.66400000    2.19500000   -4.67800000
 C(PDBName=C,ResName=LIG,ResNum=1)                    -1.45100000    2.25700000   -5.39200000
 C(PDBName=C,ResName=LIG,ResNum=1)                    -0.23100000    2.06700000   -4.74300000
 C(PDBName=C,ResName=LIG,ResNum=1)                     0.95300000    2.12000000   -5.47500000
 H(PDBName=H,ResName=LIG,ResNum=1)                    -0.20600000    1.87200000   -3.68000000
 C(PDBName=C,ResName=LIG,ResNum=1)                     2.21000000    1.91300000   -4.86900000
 C(PDBName=C,ResName=LIG,ResNum=1)                     0.91100000    2.37000000   -6.85200000
 C(PDBName=C,ResName=LIG,ResNum=1)                    -0.30200000    2.56300000   -7.48700000
 H(PDBName=H,ResName=LIG,ResNum=1)                     1.83300000    2.41000000   -7.41100000
 C(PDBName=C,ResName=LIG,ResNum=1)                    -1.48200000    2.50700000   -6.76900000
 H(PDBName=H,ResName=LIG,ResNum=1)                    -0.32800000    2.75600000   -8.54700000
 H(PDBName=H,ResName=LIG,ResNum=1)                    -2.43100000    2.65300000   -7.26100000
 C(PDBName=C,ResName=LIG,ResNum=1)                     3.31500000    1.73500000   -4.41100000
 C(PDBName=C,ResName=LIG,ResNum=1)                     4.64800000    1.50400000   -4.01900000
 C(PDBName=C,ResName=LIG,ResNum=1)                     5.62700000    1.25900000   -4.99700000
 C(PDBName=C,ResName=LIG,ResNum=1)                     5.05400000    1.50600000   -2.68700000
 H(PDBName=H,ResName=LIG,ResNum=1)                     5.35500000    1.25600000   -6.04000000
 C(PDBName=C,ResName=LIG,ResNum=1)                     6.91900000    1.02200000   -4.59500000
 C(PDBName=C,ResName=LIG,ResNum=1)                     7.24900000    1.03300000   -3.23700000
 H(PDBName=H,ResName=LIG,ResNum=1)                     7.69300000    0.82300000   -5.32000000
 N(PDBName=N,ResName=LIG,ResNum=1)                     6.31900000    1.28400000   -2.31100000
 C(PDBName=C,ResName=LIG,ResNum=1)                     8.64800000    0.75000000   -2.81100000
 H(PDBName=H,ResName=LIG,ResNum=1)                     4.32200000    1.70100000   -1.90300000
 H(PDBName=H,ResName=LIG,ResNum=1)                     9.33300000    1.46900000   -3.25700000
 H(PDBName=H,ResName=LIG,ResNum=1)                     8.95000000   -0.23600000   -3.16200000
 H(PDBName=H,ResName=LIG,ResNum=1)                     8.73700000    0.78700000   -1.72200000


C H N 0
6-31G(d)
****
Pd 0
SDD
****

Pd 0
SDD




