%chk=1_C_gas.chk
%mem=60000MB
%nprocshared=32
#P B3LYP/GenECP opt=(Tight,steep) SCF=(YQC,MaxCycle=900) int=(Grid=Ultrafine) EmpiricalDispersion=GD3

1_C_gas

4 1
 Pd                 6.21694200    0.14816200    0.00688600
 Pd                -6.21694300   -0.14816800    0.00688800
 N                 -6.08090400   -1.11278800    1.78213600
 C                 -7.11388300   -1.21131200    2.66451100
 C                 -7.00612400   -1.86989000    3.87795000
 H                 -8.04939500   -0.74335200    2.37224900
 C                 -5.79808600   -2.45394100    4.22995000
 H                 -7.86447800   -1.92027200    4.53776000
 C                 -4.70855800   -2.36763400    3.34876000
 H                 -5.69062700   -2.97425000    5.17837500
 C                 -4.90482500   -1.69451700    2.14562700
 C                 -3.42123900   -2.95335100    3.66071400
 H                 -4.08845300   -1.61549000    1.43481200
 C                 -2.37950000   -3.43562700    3.92552500
 C                 -1.10311600   -4.05117100    4.27320600
 C                  0.07663200   -3.64883600    3.64717600
 C                  1.29081900   -4.24406600    3.98701600
 H                  0.04935300   -2.87045700    2.89496200
 C                  2.53592300   -3.83316700    3.34662800
 C                  1.31647300   -5.24991800    4.95935600
 C                  0.14519700   -5.64998000    5.58291000
 H                  2.25898000   -5.71504700    5.22468700
 C                 -1.06076800   -5.05560500    5.24557500
 H                  0.17223500   -6.42842300    6.33583500
 H                 -1.97641300   -5.36871500    5.73410400
 C                  3.56081000   -3.52554800    2.85385100
 C                  4.84723200   -3.18459000    2.28152200
 C                  5.96677700   -4.02207700    2.44431400
 C                  5.03372500   -2.01383700    1.56371100
 H                  5.87365100   -4.95108200    3.00093600
 C                  7.17771900   -3.64913600    1.89905400
 C                  7.29583300   -2.45294800    1.18873200
 H                  8.05162100   -4.27707900    2.01960100
 N                  6.22361300   -1.62724200    1.01066000
 C                  8.63867700   -2.05464600    0.58325000
 H                  4.19958600   -1.33454000    1.42035400
 H                  8.68749000   -2.36036100   -0.46003800
 H                  8.79108700   -0.98044000    0.64055600
 H                  9.44751900   -2.54480900    1.11708800
 N                 -6.02792900   -1.94122200   -0.91950100
 C                 -7.00147300   -2.89380700   -0.88203500
 C                 -6.85535500   -4.14234100   -1.46149500
 H                 -7.92054600   -2.62897100   -0.36737700
 C                 -5.66446800   -4.46042300   -2.09806600
 H                 -7.66812300   -4.85713800   -1.40622300
 C                 -4.63290700   -3.50984100   -2.14547800
 H                 -5.52439500   -5.43743900   -2.55360300
 C                 -4.86922400   -2.27105800   -1.55314400
 C                 -3.35946600   -3.79989600   -2.77126100
 H                 -4.10025300   -1.50532400   -1.58085700
 C                 -2.32597400   -4.06457700   -3.27100300
 C                 -1.05607400   -4.41768900   -3.89677500
 C                  0.11597400   -3.74267300   -3.55681600
 C                  1.32623200   -4.08977200   -4.15571800
 H                  0.08577900   -2.94537100   -2.82483300
 C                  2.55799500   -3.38633600   -3.81318900
 C                  1.35626200   -5.11970100   -5.10195800
 C                  0.19239700   -5.79251700   -5.43962800
 H                  2.29557200   -5.39064100   -5.57035800
 C                 -1.00987200   -5.44734800   -4.84219700
 H                  0.22238100   -6.58994100   -6.17231700
 H                 -1.91939100   -5.97429700   -5.10713500
 C                  3.56441800   -2.82857800   -3.56100200
 C                  4.81310900   -2.14219700   -3.29947700
 C                  5.84380200   -2.10109600   -4.25940600
 C                  5.04193600   -1.49168900   -2.09915000
 H                  5.71603500   -2.60319300   -5.21497000
 C                  7.00571800   -1.41821500   -3.97470200
 C                  7.16431400   -0.76741300   -2.74736700
 H                  7.80990700   -1.37201700   -4.69858900
 N                  6.18711200   -0.80339200   -1.79677900
 C                  8.45188000    0.00861300   -2.48101800
 H                  4.28098300   -1.50938200   -1.32596900
 H                  9.31467800   -0.60601600   -2.72706100
 H                  8.52758900    0.31114500   -1.44217000
 H                  8.48497300    0.89816300   -3.10749200
 N                  6.02792900    1.94122700   -0.91948300
 C                  7.00147200    2.89381200   -0.88200500
 C                  6.85535400    4.14235300   -1.46145100
 H                  7.92054500    2.62897000   -0.36734900
 C                  5.66446700    4.46044200   -2.09801800
 H                  7.66812200    4.85715000   -1.40616900
 C                  4.63290600    3.50986100   -2.14544100
 H                  5.52439400    5.43746400   -2.55354200
 C                  4.86922400    2.27107000   -1.55312200
 C                  3.35946500    3.79992400   -2.77122000
 H                  4.10025200    1.50533700   -1.58084400
 C                  2.32597200    4.06461100   -3.27095700
 C                  1.05607100    4.41773100   -3.89672300
 C                 -0.11597700    3.74271200   -3.55677000
 C                 -1.32623500    4.08981900   -4.15566600
 H                 -0.08578100    2.94540000   -2.82479800
 C                 -2.55799800    3.38637900   -3.81314400
 C                 -1.35626600    5.11976000   -5.10189300
 C                 -0.19240100    5.79257900   -5.43955600
 H                 -2.29557700    5.39070700   -5.57028800
 C                  1.00986800    5.44740200   -4.84213100
 H                 -0.22238600    6.59001300   -6.17223400
 H                  1.91938700    5.97435400   -5.10706400
 C                 -3.56442200    2.82861900   -3.56096400
 C                 -4.81311200    2.14223400   -3.29944700
 C                 -5.84380600    2.10114500   -4.25937600
 C                 -5.04193900    1.49170900   -2.09912900
 H                 -5.71604000    2.60325500   -5.21493300
 C                 -7.00572100    1.41825700   -3.97468100
 C                 -7.16431500    0.76743700   -2.74735600
 H                 -7.80991000    1.37206800   -4.69856900
 N                 -6.18711300    0.80340700   -1.79676700
 C                 -8.45187600   -0.00860200   -2.48102000
 H                 -4.28098600    1.50939300   -1.32594800
 H                 -8.52760400   -0.31111200   -1.44216700
 H                 -8.48493900   -0.89816700   -3.10747400
 H                 -9.31467700    0.60600700   -2.72709600
 N                  6.08090500    1.11276400    1.78214500
 C                  7.11388200    1.21127500    2.66452300
 C                  7.00612300    1.86983900    3.87796900
 H                  8.04939400    0.74331500    2.37225800
 C                  5.79808600    2.45389100    4.22997300
 H                  7.86447600    1.92021100    4.53778200
 C                  4.70856000    2.36759700    3.34878000
 H                  5.69062600    2.97418900    5.17840400
 C                  4.90482800    1.69449300    2.14564000
 C                  3.42124200    2.95331400    3.66073600
 H                  4.08845700    1.61547700    1.43482200
 C                  2.37950300    3.43559200    3.92554800
 C                  1.10312100    4.05113700    4.27323000
 C                 -0.07662900    3.64880400    3.64720100
 C                 -1.29081400    4.24403500    3.98704000
 H                 -0.04935100    2.87042500    2.89498600
 C                 -2.53591900    3.83313900    3.34665200
 C                 -1.31646700    5.24988700    4.95938000
 C                 -0.14519000    5.64994700    5.58293600
 H                 -2.25897300    5.71501800    5.22471200
 C                  1.06077400    5.05557000    5.24560000
 H                 -0.17222700    6.42839000    6.33586100
 H                  1.97642000    5.36867900    5.73412900
 C                 -3.56080700    3.52552200    2.85387500
 C                 -4.84723000    3.18456800    2.28154700
 C                 -5.96677400    4.02205500    2.44434400
 C                 -5.03372500    2.01381800    1.56373000
 H                 -5.87364600    4.95105800    3.00097000
 C                 -7.17771700    3.64911700    1.89908600
 C                 -7.29583300    2.45293100    1.18876000
 H                 -8.05161900    4.27705900    2.01963900
 N                 -6.22361500    1.62722600    1.01068000
 C                 -8.63868100    2.05463300    0.58328300
 H                 -4.19958600    1.33452100    1.42036800
 H                 -8.79107400    0.98042200    0.64054900
 H                 -8.68751600    2.36038800   -0.45999200
 H                 -9.44752200    2.54476200    1.11715300

C H N 0
6-31G(d)
****
Pd 0
SDD
****

Pd 0
SDD




