%chk=1_C_mecn.chk
%mem=60000mb
%nprocshared=32
#P B3LYP/GenECP opt=(Tight) SCF=(YQC,MaxCycle=900) int=(Grid=Ultrafine) EmpiricalDispersion=GD3 SCRF=(PCM,Solvent=Acetonitrile)

1_C_mecn

4 1
 Pd(PDBName=PD,ResName=LIG,ResNum=1)                   8.94000000    0.07300000    1.74300000
 Pd(PDBName=PD,ResName=LIG,ResNum=1)                  -3.67800000   -0.25300000   -0.29600000
 N(PDBName=N,ResName=LIG,ResNum=1)                    -3.62900000    1.75900000   -0.41000000
 C(PDBName=C,ResName=LIG,ResNum=1)                    -4.71300000    2.53000000   -0.51500000
 C(PDBName=C,ResName=LIG,ResNum=1)                    -4.63300000    3.91500000   -0.50900000
 H(PDBName=H,ResName=LIG,ResNum=1)                    -5.67200000    2.03100000   -0.60300000
 C(PDBName=C,ResName=LIG,ResNum=1)                    -3.39900000    4.52200000   -0.37800000
 H(PDBName=H,ResName=LIG,ResNum=1)                    -5.53100000    4.50400000   -0.60300000
 C(PDBName=C,ResName=LIG,ResNum=1)                    -2.25700000    3.71600000   -0.25300000
 H(PDBName=H,ResName=LIG,ResNum=1)                    -3.30300000    5.59600000   -0.36700000
 C(PDBName=C,ResName=LIG,ResNum=1)                    -2.43200000    2.33000000   -0.28100000
 C(PDBName=C,ResName=LIG,ResNum=1)                    -0.98300000    4.28900000   -0.09500000
 H(PDBName=H,ResName=LIG,ResNum=1)                    -1.56700000    1.67100000   -0.19500000
 C(PDBName=C,ResName=LIG,ResNum=1)                     0.08800000    4.83200000    0.05100000
 C(PDBName=C,ResName=LIG,ResNum=1)                     1.30500000    5.52300000    0.21800000
 C(PDBName=C,ResName=LIG,ResNum=1)                     2.49900000    4.84100000    0.44300000
 C(PDBName=C,ResName=LIG,ResNum=1)                     3.68200000    5.56000000    0.60500000
 H(PDBName=H,ResName=LIG,ResNum=1)                     2.50800000    3.76100000    0.49000000
 C(PDBName=C,ResName=LIG,ResNum=1)                     4.91500000    4.91200000    0.82700000
 C(PDBName=C,ResName=LIG,ResNum=1)                     3.66400000    6.95900000    0.54200000
 C(PDBName=C,ResName=LIG,ResNum=1)                     2.47500000    7.62800000    0.31900000
 H(PDBName=H,ResName=LIG,ResNum=1)                     4.58500000    7.50700000    0.66800000
 C(PDBName=C,ResName=LIG,ResNum=1)                     1.29700000    6.92200000    0.15700000
 H(PDBName=H,ResName=LIG,ResNum=1)                     2.46600000    8.70500000    0.27100000
 H(PDBName=H,ResName=LIG,ResNum=1)                     0.36700000    7.44100000   -0.01800000
 C(PDBName=C,ResName=LIG,ResNum=1)                     6.00100000    4.41400000    1.01500000
 C(PDBName=C,ResName=LIG,ResNum=1)                     7.30700000    3.92900000    1.21100000
 C(PDBName=C,ResName=LIG,ResNum=1)                     8.39700000    4.81500000    1.23100000
 C(PDBName=C,ResName=LIG,ResNum=1)                     7.57800000    2.57300000    1.38000000
 H(PDBName=H,ResName=LIG,ResNum=1)                     8.23000000    5.87400000    1.11300000
 C(PDBName=C,ResName=LIG,ResNum=1)                     9.66500000    4.30800000    1.39000000
 C(PDBName=C,ResName=LIG,ResNum=1)                     9.85900000    2.93200000    1.53600000
 H(PDBName=H,ResName=LIG,ResNum=1)                    10.52200000    4.96300000    1.39900000
 N(PDBName=N,ResName=LIG,ResNum=1)                     8.81600000    2.09700000    1.54500000
 C(PDBName=C,ResName=LIG,ResNum=1)                    11.23500000    2.37200000    1.67200000
 H(PDBName=H,ResName=LIG,ResNum=1)                     6.76000000    1.85300000    1.37500000
 H(PDBName=H,ResName=LIG,ResNum=1)                    11.68600000    2.70200000    2.60800000
 H(PDBName=H,ResName=LIG,ResNum=1)                    11.21700000    1.27300000    1.64300000
 H(PDBName=H,ResName=LIG,ResNum=1)                    11.86900000    2.74000000    0.86700000
 N(PDBName=N,ResName=LIG,ResNum=1)                    -3.92100000   -0.05900000    1.69700000
 C(PDBName=C,ResName=LIG,ResNum=1)                    -5.10100000    0.11400000    2.29200000
 C(PDBName=C,ResName=LIG,ResNum=1)                    -5.21000000    0.32500000    3.66000000
 H(PDBName=H,ResName=LIG,ResNum=1)                    -5.98600000    0.08700000    1.66500000
 C(PDBName=C,ResName=LIG,ResNum=1)                    -4.06600000    0.37200000    4.43100000
 H(PDBName=H,ResName=LIG,ResNum=1)                    -6.18300000    0.45400000    4.10600000
 C(PDBName=C,ResName=LIG,ResNum=1)                    -2.82000000    0.20500000    3.80700000
 H(PDBName=H,ResName=LIG,ResNum=1)                    -4.11600000    0.53800000    5.49600000
 C(PDBName=C,ResName=LIG,ResNum=1)                    -2.80800000   -0.01400000    2.42700000
 C(PDBName=C,ResName=LIG,ResNum=1)                    -1.62800000    0.26800000    4.54900000
 H(PDBName=H,ResName=LIG,ResNum=1)                    -1.85900000   -0.15700000    1.90800000
 C(PDBName=C,ResName=LIG,ResNum=1)                    -0.63000000    0.34300000    5.22900000
 C(PDBName=C,ResName=LIG,ResNum=1)                     0.49100000    0.43900000    6.07700000
 C(PDBName=C,ResName=LIG,ResNum=1)                     1.78800000    0.38900000    5.56800000
 C(PDBName=C,ResName=LIG,ResNum=1)                     2.87200000    0.49000000    6.43800000
 H(PDBName=H,ResName=LIG,ResNum=1)                     1.95200000    0.27200000    4.50600000
 C(PDBName=C,ResName=LIG,ResNum=1)                     4.20200000    0.43800000    5.96900000
 C(PDBName=C,ResName=LIG,ResNum=1)                     2.65400000    0.64100000    7.81300000
 C(PDBName=C,ResName=LIG,ResNum=1)                     1.36500000    0.69000000    8.30900000
 H(PDBName=H,ResName=LIG,ResNum=1)                     3.50000000    0.71800000    8.47800000
 C(PDBName=C,ResName=LIG,ResNum=1)                     0.28300000    0.59100000    7.45300000
 H(PDBName=H,ResName=LIG,ResNum=1)                     1.20200000    0.80600000    9.36900000
 H(PDBName=H,ResName=LIG,ResNum=1)                    -0.72400000    0.62800000    7.83700000
 C(PDBName=C,ResName=LIG,ResNum=1)                     5.36100000    0.39500000    5.62800000
 C(PDBName=C,ResName=LIG,ResNum=1)                     6.73500000    0.33100000    5.33200000
 C(PDBName=C,ResName=LIG,ResNum=1)                     7.68400000    0.32100000    6.36900000
 C(PDBName=C,ResName=LIG,ResNum=1)                     7.21200000    0.26600000    4.02500000
 H(PDBName=H,ResName=LIG,ResNum=1)                     7.35800000    0.37900000    7.39600000
 C(PDBName=C,ResName=LIG,ResNum=1)                     9.01800000    0.22400000    6.05100000
 C(PDBName=C,ResName=LIG,ResNum=1)                     9.41700000    0.14500000    4.71400000
 H(PDBName=H,ResName=LIG,ResNum=1)                     9.76800000    0.20300000    6.82500000
 N(PDBName=N,ResName=LIG,ResNum=1)                     8.51300000    0.18400000    3.73100000
 C(PDBName=C,ResName=LIG,ResNum=1)                    10.86100000    0.00200000    4.36300000
 H(PDBName=H,ResName=LIG,ResNum=1)                     6.50900000    0.27500000    3.19200000
 H(PDBName=H,ResName=LIG,ResNum=1)                    11.41000000    0.89800000    4.65100000
 H(PDBName=H,ResName=LIG,ResNum=1)                    10.98800000   -0.17400000    3.28600000
 H(PDBName=H,ResName=LIG,ResNum=1)                    11.29800000   -0.82900000    4.91500000
 N(PDBName=N,ResName=LIG,ResNum=1)                     8.89300000   -1.94000000    1.84300000
 C(PDBName=C,ResName=LIG,ResNum=1)                     9.97800000   -2.71000000    1.93400000
 C(PDBName=C,ResName=LIG,ResNum=1)                     9.89900000   -4.09600000    1.91700000
 H(PDBName=H,ResName=LIG,ResNum=1)                    10.93800000   -2.21100000    2.02000000
 C(PDBName=C,ResName=LIG,ResNum=1)                     8.66600000   -4.70300000    1.79000000
 H(PDBName=H,ResName=LIG,ResNum=1)                    10.79900000   -4.68400000    2.00100000
 C(PDBName=C,ResName=LIG,ResNum=1)                     7.52200000   -3.89700000    1.67800000
 H(PDBName=H,ResName=LIG,ResNum=1)                     8.57100000   -5.77700000    1.77000000
 C(PDBName=C,ResName=LIG,ResNum=1)                     7.69600000   -2.51100000    1.71700000
 C(PDBName=C,ResName=LIG,ResNum=1)                     6.24800000   -4.47100000    1.52400000
 H(PDBName=H,ResName=LIG,ResNum=1)                     6.83000000   -1.85200000    1.64200000
 C(PDBName=C,ResName=LIG,ResNum=1)                     5.17600000   -5.01300000    1.38000000
 C(PDBName=C,ResName=LIG,ResNum=1)                     3.95900000   -5.70400000    1.21600000
 C(PDBName=C,ResName=LIG,ResNum=1)                     2.76300000   -5.02100000    0.99700000
 C(PDBName=C,ResName=LIG,ResNum=1)                     1.58100000   -5.74000000    0.83800000
 H(PDBName=H,ResName=LIG,ResNum=1)                     2.75400000   -3.94200000    0.95300000
 C(PDBName=C,ResName=LIG,ResNum=1)                     0.34700000   -5.09200000    0.62200000
 C(PDBName=C,ResName=LIG,ResNum=1)                     1.59900000   -7.14000000    0.89800000
 C(PDBName=C,ResName=LIG,ResNum=1)                     2.78900000   -7.80900000    1.11400000
 H(PDBName=H,ResName=LIG,ResNum=1)                     0.67800000   -7.68700000    0.77300000
 C(PDBName=C,ResName=LIG,ResNum=1)                     3.96700000   -7.10400000    1.27300000
 H(PDBName=H,ResName=LIG,ResNum=1)                     2.79800000   -8.88600000    1.15900000
 H(PDBName=H,ResName=LIG,ResNum=1)                     4.89800000   -7.62200000    1.44300000
 C(PDBName=C,ResName=LIG,ResNum=1)                    -0.74000000   -4.59400000    0.44000000
 C(PDBName=C,ResName=LIG,ResNum=1)                    -2.04700000   -4.10700000    0.25000000
 C(PDBName=C,ResName=LIG,ResNum=1)                    -3.13800000   -4.99300000    0.24200000
 C(PDBName=C,ResName=LIG,ResNum=1)                    -2.31700000   -2.75300000    0.07400000
 H(PDBName=H,ResName=LIG,ResNum=1)                    -2.97200000   -6.05100000    0.36500000
 C(PDBName=C,ResName=LIG,ResNum=1)                    -4.40700000   -4.48500000    0.08800000
 C(PDBName=C,ResName=LIG,ResNum=1)                    -4.59900000   -3.11000000   -0.06500000
 H(PDBName=H,ResName=LIG,ResNum=1)                    -5.26400000   -5.13900000    0.09000000
 N(PDBName=N,ResName=LIG,ResNum=1)                    -3.55500000   -2.27600000   -0.08600000
 C(PDBName=C,ResName=LIG,ResNum=1)                    -5.97600000   -2.54900000   -0.19500000
 H(PDBName=H,ResName=LIG,ResNum=1)                    -1.49800000   -2.03300000    0.07000000
 H(PDBName=H,ResName=LIG,ResNum=1)                    -5.95600000   -1.45000000   -0.17800000
 H(PDBName=H,ResName=LIG,ResNum=1)                    -6.60300000   -2.90700000    0.62000000
 H(PDBName=H,ResName=LIG,ResNum=1)                    -6.43600000   -2.88800000   -1.12300000
 N(PDBName=N,ResName=LIG,ResNum=1)                     9.18300000   -0.10700000   -0.25100000
 C(PDBName=C,ResName=LIG,ResNum=1)                    10.36400000   -0.26700000   -0.84900000
 C(PDBName=C,ResName=LIG,ResNum=1)                    10.47400000   -0.46800000   -2.21800000
 H(PDBName=H,ResName=LIG,ResNum=1)                    11.24900000   -0.23700000   -0.22200000
 C(PDBName=C,ResName=LIG,ResNum=1)                     9.32900000   -0.51800000   -2.98800000
 H(PDBName=H,ResName=LIG,ResNum=1)                    11.44700000   -0.58600000   -2.66600000
 C(PDBName=C,ResName=LIG,ResNum=1)                     8.08300000   -0.36500000   -2.36200000
 H(PDBName=H,ResName=LIG,ResNum=1)                     9.37900000   -0.67600000   -4.05400000
 C(PDBName=C,ResName=LIG,ResNum=1)                     8.06900000   -0.15500000   -0.98000000
 C(PDBName=C,ResName=LIG,ResNum=1)                     6.89000000   -0.43100000   -3.10300000
 H(PDBName=H,ResName=LIG,ResNum=1)                     7.12100000   -0.02400000   -0.46000000
 C(PDBName=C,ResName=LIG,ResNum=1)                     5.89200000   -0.50900000   -3.78300000
 C(PDBName=C,ResName=LIG,ResNum=1)                     4.77000000   -0.60900000   -4.63100000
 C(PDBName=C,ResName=LIG,ResNum=1)                     3.47300000   -0.56500000   -4.12100000
 C(PDBName=C,ResName=LIG,ResNum=1)                     2.39000000   -0.66900000   -4.99100000
 H(PDBName=H,ResName=LIG,ResNum=1)                     3.31000000   -0.45000000   -3.05900000
 C(PDBName=C,ResName=LIG,ResNum=1)                     1.06000000   -0.62200000   -4.52100000
 C(PDBName=C,ResName=LIG,ResNum=1)                     2.60800000   -0.81600000   -6.36600000
 C(PDBName=C,ResName=LIG,ResNum=1)                     3.89700000   -0.86000000   -6.86300000
 H(PDBName=H,ResName=LIG,ResNum=1)                     1.76200000   -0.89600000   -7.03100000
 C(PDBName=C,ResName=LIG,ResNum=1)                     4.97900000   -0.75800000   -6.00700000
 H(PDBName=H,ResName=LIG,ResNum=1)                     4.06100000   -0.97400000   -7.92300000
 H(PDBName=H,ResName=LIG,ResNum=1)                     5.98600000   -0.79000000   -6.39100000
 C(PDBName=C,ResName=LIG,ResNum=1)                    -0.09900000   -0.58400000   -4.18100000
 C(PDBName=C,ResName=LIG,ResNum=1)                    -1.47400000   -0.52600000   -3.88500000
 C(PDBName=C,ResName=LIG,ResNum=1)                    -2.42300000   -0.52900000   -4.92100000
 C(PDBName=C,ResName=LIG,ResNum=1)                    -1.95000000   -0.45400000   -2.57800000
 H(PDBName=H,ResName=LIG,ResNum=1)                    -2.09700000   -0.59300000   -5.94700000
 C(PDBName=C,ResName=LIG,ResNum=1)                    -3.75700000   -0.43700000   -4.60300000
 C(PDBName=C,ResName=LIG,ResNum=1)                    -4.15700000   -0.35000000   -3.26600000
 H(PDBName=H,ResName=LIG,ResNum=1)                    -4.50800000   -0.42600000   -5.37700000
 N(PDBName=N,ResName=LIG,ResNum=1)                    -3.25100000   -0.37700000   -2.28400000
 C(PDBName=C,ResName=LIG,ResNum=1)                    -5.60000000   -0.21300000   -2.91500000
 H(PDBName=H,ResName=LIG,ResNum=1)                    -1.24600000   -0.45300000   -1.74500000
 H(PDBName=H,ResName=LIG,ResNum=1)                    -5.72800000   -0.02400000   -1.84000000
 H(PDBName=H,ResName=LIG,ResNum=1)                    -6.14300000   -1.11700000   -3.19100000
 H(PDBName=H,ResName=LIG,ResNum=1)                    -6.04400000    0.60800000   -3.47600000


C H N 0
6-31G(d)
****
Pd 0
SDD
****

Pd 0
SDD




