%chk=1_D_dmso.chk
%mem=60000mb
%nprocshared=32
#P B3LYP/GenECP opt=(Tight,steep) SCF=(YQC,MaxCycle=900) int=(Grid=Ultrafine) EmpiricalDispersion=GD3 SCRF=(PCM,Solvent=DiMethylSulfoxide)

1_D_dmso

4 1
 Pd(PDBName=PD,ResName=LIG,ResNum=1)                  -3.09500000    0.82000000    0.68600000
 Pd(PDBName=PD,ResName=LIG,ResNum=1)                 -15.79700000    1.65100000    0.63000000
 N(PDBName=N,ResName=LIG,ResNum=1)                   -15.59300000    3.64700000    0.67200000
 C(PDBName=C,ResName=LIG,ResNum=1)                   -16.61400000    4.50500000    0.67800000
 C(PDBName=C,ResName=LIG,ResNum=1)                   -16.41900000    5.87900000    0.70600000
 H(PDBName=H,ResName=LIG,ResNum=1)                   -17.61600000    4.08900000    0.66000000
 C(PDBName=C,ResName=LIG,ResNum=1)                   -15.13300000    6.38100000    0.72900000
 H(PDBName=H,ResName=LIG,ResNum=1)                   -17.26900000    6.54100000    0.71000000
 C(PDBName=C,ResName=LIG,ResNum=1)                   -14.05500000    5.48200000    0.72200000
 H(PDBName=H,ResName=LIG,ResNum=1)                   -14.94700000    7.44300000    0.75100000
 C(PDBName=C,ResName=LIG,ResNum=1)                   -14.34700000    4.11600000    0.69300000
 C(PDBName=C,ResName=LIG,ResNum=1)                   -12.72800000    5.94600000    0.74400000
 H(PDBName=H,ResName=LIG,ResNum=1)                   -13.53500000    3.38800000    0.68700000
 C(PDBName=C,ResName=LIG,ResNum=1)                   -11.60500000    6.39400000    0.76500000
 C(PDBName=C,ResName=LIG,ResNum=1)                   -10.32200000    6.97800000    0.79000000
 C(PDBName=C,ResName=LIG,ResNum=1)                    -9.17100000    6.19100000    0.78100000
 C(PDBName=C,ResName=LIG,ResNum=1)                    -7.92000000    6.80400000    0.80600000
 H(PDBName=H,ResName=LIG,ResNum=1)                    -9.24900000    5.11400000    0.75400000
 C(PDBName=C,ResName=LIG,ResNum=1)                    -6.73000000    6.04600000    0.79800000
 C(PDBName=C,ResName=LIG,ResNum=1)                    -7.82500000    8.20100000    0.84100000
 C(PDBName=C,ResName=LIG,ResNum=1)                    -8.97100000    8.97300000    0.84900000
 H(PDBName=H,ResName=LIG,ResNum=1)                    -6.85100000    8.66600000    0.86100000
 C(PDBName=C,ResName=LIG,ResNum=1)                   -10.21700000    8.37400000    0.82400000
 H(PDBName=H,ResName=LIG,ResNum=1)                    -8.89400000   10.04800000    0.87600000
 H(PDBName=H,ResName=LIG,ResNum=1)                   -11.11400000    8.97300000    0.83100000
 C(PDBName=C,ResName=LIG,ResNum=1)                    -5.67800000    5.44900000    0.79200000
 C(PDBName=C,ResName=LIG,ResNum=1)                    -4.41100000    4.83700000    0.78800000
 C(PDBName=C,ResName=LIG,ResNum=1)                    -3.24300000    5.61800000    0.82300000
 C(PDBName=C,ResName=LIG,ResNum=1)                    -4.25800000    3.45300000    0.75000000
 H(PDBName=H,ResName=LIG,ResNum=1)                    -3.31800000    6.69300000    0.85300000
 C(PDBName=C,ResName=LIG,ResNum=1)                    -2.01900000    4.99000000    0.81700000
 C(PDBName=C,ResName=LIG,ResNum=1)                    -1.94700000    3.59600000    0.77700000
 H(PDBName=H,ResName=LIG,ResNum=1)                    -1.10700000    5.56400000    0.84300000
 N(PDBName=N,ResName=LIG,ResNum=1)                    -3.06100000    2.85900000    0.74500000
 C(PDBName=C,ResName=LIG,ResNum=1)                    -0.62500000    2.90100000    0.77000000
 H(PDBName=H,ResName=LIG,ResNum=1)                    -5.13700000    2.80800000    0.72200000
 H(PDBName=H,ResName=LIG,ResNum=1)                    -0.05700000    3.16600000    1.66100000
 H(PDBName=H,ResName=LIG,ResNum=1)                    -0.75600000    1.80800000    0.73500000
 H(PDBName=H,ResName=LIG,ResNum=1)                    -0.03700000    3.22000000   -0.09000000
 N(PDBName=N,ResName=LIG,ResNum=1)                    -3.18100000    0.76800000    2.69100000
 C(PDBName=C,ResName=LIG,ResNum=1)                    -2.11400000    0.66900000    3.48500000
 C(PDBName=C,ResName=LIG,ResNum=1)                    -2.22700000    0.63700000    4.86800000
 H(PDBName=H,ResName=LIG,ResNum=1)                    -1.14100000    0.61500000    3.00800000
 C(PDBName=C,ResName=LIG,ResNum=1)                    -3.47900000    0.70800000    5.44700000
 H(PDBName=H,ResName=LIG,ResNum=1)                    -1.34200000    0.55700000    5.47700000
 C(PDBName=C,ResName=LIG,ResNum=1)                    -4.60500000    0.81100000    4.61600000
 H(PDBName=H,ResName=LIG,ResNum=1)                    -3.60100000    0.68500000    6.51800000
 C(PDBName=C,ResName=LIG,ResNum=1)                    -4.39400000    0.83700000    3.23500000
 C(PDBName=C,ResName=LIG,ResNum=1)                    -5.89900000    0.88600000    5.16000000
 H(PDBName=H,ResName=LIG,ResNum=1)                    -5.24600000    0.91600000    2.55800000
 C(PDBName=C,ResName=LIG,ResNum=1)                    -6.99100000    0.94800000    5.67600000
 C(PDBName=C,ResName=LIG,ResNum=1)                    -8.23500000    1.01600000    6.33700000
 C(PDBName=C,ResName=LIG,ResNum=1)                    -9.42800000    1.11400000    5.62200000
 C(PDBName=C,ResName=LIG,ResNum=1)                   -10.63800000    1.18000000    6.30900000
 H(PDBName=H,ResName=LIG,ResNum=1)                    -9.41400000    1.13900000    4.54100000
 C(PDBName=C,ResName=LIG,ResNum=1)                   -11.86700000    1.27900000    5.62600000
 C(PDBName=C,ResName=LIG,ResNum=1)                   -10.64900000    1.14800000    7.71000000
 C(PDBName=C,ResName=LIG,ResNum=1)                    -9.46200000    1.05100000    8.41100000
 H(PDBName=H,ResName=LIG,ResNum=1)                   -11.59100000    1.20000000    8.23300000
 C(PDBName=C,ResName=LIG,ResNum=1)                    -8.25600000    0.98500000    7.73600000
 H(PDBName=H,ResName=LIG,ResNum=1)                    -9.47500000    1.02700000    9.48900000
 H(PDBName=H,ResName=LIG,ResNum=1)                    -7.32800000    0.90900000    8.28000000
 C(PDBName=C,ResName=LIG,ResNum=1)                   -12.95000000    1.36500000    5.09400000
 C(PDBName=C,ResName=LIG,ResNum=1)                   -14.24800000    1.46500000    4.56000000
 C(PDBName=C,ResName=LIG,ResNum=1)                   -15.36500000    1.52500000    5.41100000
 C(PDBName=C,ResName=LIG,ResNum=1)                   -14.48200000    1.50900000    3.18800000
 H(PDBName=H,ResName=LIG,ResNum=1)                   -15.22700000    1.49400000    6.48000000
 C(PDBName=C,ResName=LIG,ResNum=1)                   -16.62100000    1.62200000    4.85900000
 C(PDBName=C,ResName=LIG,ResNum=1)                   -16.77600000    1.66000000    3.47200000
 H(PDBName=H,ResName=LIG,ResNum=1)                   -17.49600000    1.66900000    5.48800000
 N(PDBName=N,ResName=LIG,ResNum=1)                   -15.71000000    1.60300000    2.66800000
 C(PDBName=C,ResName=LIG,ResNum=1)                   -18.13300000    1.76500000    2.85800000
 H(PDBName=H,ResName=LIG,ResNum=1)                   -13.64500000    1.46500000    2.49000000
 H(PDBName=H,ResName=LIG,ResNum=1)                   -18.06800000    1.78100000    1.75900000
 H(PDBName=H,ResName=LIG,ResNum=1)                   -18.75200000    0.92400000    3.16900000
 H(PDBName=H,ResName=LIG,ResNum=1)                   -18.63200000    2.67200000    3.20200000
 N(PDBName=N,ResName=LIG,ResNum=1)                   -15.85400000   -0.35500000    0.59000000
 C(PDBName=C,ResName=LIG,ResNum=1)                   -16.97800000   -1.07300000    0.57400000
 C(PDBName=C,ResName=LIG,ResNum=1)                   -16.96300000   -2.46100000    0.54700000
 H(PDBName=H,ResName=LIG,ResNum=1)                   -17.91700000   -0.53000000    0.58400000
 C(PDBName=C,ResName=LIG,ResNum=1)                   -15.75300000   -3.12500000    0.53600000
 H(PDBName=H,ResName=LIG,ResNum=1)                   -17.89200000   -3.00700000    0.53500000
 C(PDBName=C,ResName=LIG,ResNum=1)                   -14.56700000   -2.37400000    0.55200000
 H(PDBName=H,ResName=LIG,ResNum=1)                   -15.70700000   -4.20300000    0.51500000
 C(PDBName=C,ResName=LIG,ResNum=1)                   -14.67900000   -0.98200000    0.57900000
 C(PDBName=C,ResName=LIG,ResNum=1)                   -13.31200000   -3.00700000    0.54200000
 H(PDBName=H,ResName=LIG,ResNum=1)                   -13.78000000   -0.36600000    0.59300000
 C(PDBName=C,ResName=LIG,ResNum=1)                   -12.25600000   -3.59800000    0.53100000
 C(PDBName=C,ResName=LIG,ResNum=1)                   -11.06000000   -4.34400000    0.51700000
 C(PDBName=C,ResName=LIG,ResNum=1)                    -9.81700000   -3.71400000    0.53700000
 C(PDBName=C,ResName=LIG,ResNum=1)                    -8.65600000   -4.48400000    0.52200000
 H(PDBName=H,ResName=LIG,ResNum=1)                    -9.75400000   -2.63600000    0.56300000
 C(PDBName=C,ResName=LIG,ResNum=1)                    -7.37700000   -3.88900000    0.54100000
 C(PDBName=C,ResName=LIG,ResNum=1)                    -8.74300000   -5.88200000    0.48800000
 C(PDBName=C,ResName=LIG,ResNum=1)                    -9.98100000   -6.49800000    0.46900000
 H(PDBName=H,ResName=LIG,ResNum=1)                    -7.83900000   -6.47000000    0.47700000
 C(PDBName=C,ResName=LIG,ResNum=1)                   -11.13800000   -5.74200000    0.48300000
 H(PDBName=H,ResName=LIG,ResNum=1)                   -10.04400000   -7.57500000    0.44200000
 H(PDBName=H,ResName=LIG,ResNum=1)                   -12.10500000   -6.21900000    0.46800000
 C(PDBName=C,ResName=LIG,ResNum=1)                    -6.25700000   -3.43300000    0.55600000
 C(PDBName=C,ResName=LIG,ResNum=1)                    -4.92100000   -2.99100000    0.57200000
 C(PDBName=C,ResName=LIG,ResNum=1)                    -3.86500000   -3.91800000    0.54800000
 C(PDBName=C,ResName=LIG,ResNum=1)                    -4.59000000   -1.63900000    0.61200000
 H(PDBName=H,ResName=LIG,ResNum=1)                    -4.07800000   -4.97400000    0.51700000
 C(PDBName=C,ResName=LIG,ResNum=1)                    -2.57000000   -3.45400000    0.56500000
 C(PDBName=C,ResName=LIG,ResNum=1)                    -2.31700000   -2.08100000    0.60500000
 H(PDBName=H,ResName=LIG,ResNum=1)                    -1.73900000   -4.14200000    0.54700000
 N(PDBName=N,ResName=LIG,ResNum=1)                    -3.32600000   -1.20600000    0.62700000
 C(PDBName=C,ResName=LIG,ResNum=1)                    -0.91600000   -1.56400000    0.62300000
 H(PDBName=H,ResName=LIG,ResNum=1)                    -5.37800000   -0.88500000    0.63100000
 H(PDBName=H,ResName=LIG,ResNum=1)                    -0.90400000   -0.46300000    0.65700000
 H(PDBName=H,ResName=LIG,ResNum=1)                    -0.37900000   -1.90200000   -0.26200000
 H(PDBName=H,ResName=LIG,ResNum=1)                    -0.38200000   -1.95600000    1.48900000
 N(PDBName=N,ResName=LIG,ResNum=1)                    -3.15600000    0.88200000   -1.31900000
 C(PDBName=C,ResName=LIG,ResNum=1)                    -2.07800000    0.84100000   -2.10400000
 C(PDBName=C,ResName=LIG,ResNum=1)                    -2.17500000    0.88700000   -3.48800000
 H(PDBName=H,ResName=LIG,ResNum=1)                    -1.11100000    0.76800000   -1.61900000
 C(PDBName=C,ResName=LIG,ResNum=1)                    -3.42000000    0.98000000   -4.07700000
 H(PDBName=H,ResName=LIG,ResNum=1)                    -1.28100000    0.85100000   -4.08900000
 C(PDBName=C,ResName=LIG,ResNum=1)                    -4.55700000    1.02400000   -3.25600000
 H(PDBName=H,ResName=LIG,ResNum=1)                    -3.52900000    1.01800000   -5.15000000
 C(PDBName=C,ResName=LIG,ResNum=1)                    -4.36300000    0.97200000   -1.87300000
 C(PDBName=C,ResName=LIG,ResNum=1)                    -5.84500000    1.11900000   -3.81100000
 H(PDBName=H,ResName=LIG,ResNum=1)                    -5.22400000    1.00400000   -1.20400000
 C(PDBName=C,ResName=LIG,ResNum=1)                    -6.93200000    1.20000000   -4.33700000
 C(PDBName=C,ResName=LIG,ResNum=1)                    -8.16700000    1.29300000   -5.00900000
 C(PDBName=C,ResName=LIG,ResNum=1)                    -9.36900000    1.35300000   -4.30500000
 C(PDBName=C,ResName=LIG,ResNum=1)                   -10.57100000    1.44500000   -5.00300000
 H(PDBName=H,ResName=LIG,ResNum=1)                    -9.36800000    1.32700000   -3.22400000
 C(PDBName=C,ResName=LIG,ResNum=1)                   -11.80900000    1.50800000   -4.33000000
 C(PDBName=C,ResName=LIG,ResNum=1)                   -10.56600000    1.47800000   -6.40300000
 C(PDBName=C,ResName=LIG,ResNum=1)                    -9.37000000    1.41900000   -7.09400000
 H(PDBName=H,ResName=LIG,ResNum=1)                   -11.50200000    1.55000000   -6.93500000
 C(PDBName=C,ResName=LIG,ResNum=1)                    -8.17300000    1.32700000   -6.40900000
 H(PDBName=H,ResName=LIG,ResNum=1)                    -9.37100000    1.44400000   -8.17200000
 H(PDBName=H,ResName=LIG,ResNum=1)                    -7.23700000    1.28100000   -6.94400000
 C(PDBName=C,ResName=LIG,ResNum=1)                   -12.89900000    1.56400000   -3.80800000
 C(PDBName=C,ResName=LIG,ResNum=1)                   -14.20300000    1.63500000   -3.28600000
 C(PDBName=C,ResName=LIG,ResNum=1)                   -15.31100000    1.72300000   -4.14600000
 C(PDBName=C,ResName=LIG,ResNum=1)                   -14.45300000    1.62000000   -1.91600000
 H(PDBName=H,ResName=LIG,ResNum=1)                   -15.16100000    1.73700000   -5.21400000
 C(PDBName=C,ResName=LIG,ResNum=1)                   -16.57400000    1.79000000   -3.60500000
 C(PDBName=C,ResName=LIG,ResNum=1)                   -16.74400000    1.77100000   -2.21900000
 H(PDBName=H,ResName=LIG,ResNum=1)                   -17.44200000    1.85900000   -4.24100000
 N(PDBName=N,ResName=LIG,ResNum=1)                   -15.68700000    1.68700000   -1.40600000
 C(PDBName=C,ResName=LIG,ResNum=1)                   -18.10900000    1.84300000   -1.61700000
 H(PDBName=H,ResName=LIG,ResNum=1)                   -13.62400000    1.55300000   -1.21100000
 H(PDBName=H,ResName=LIG,ResNum=1)                   -18.71900000    1.01000000   -1.96800000
 H(PDBName=H,ResName=LIG,ResNum=1)                   -18.05600000    1.81600000   -0.51800000
 H(PDBName=H,ResName=LIG,ResNum=1)                   -18.61000000    2.75800000   -1.93100000


C H N 0
6-31G(d)
****
Pd 0
SDD
****

Pd 0
SDD




