%chk=4_B_dmso.chk
%mem=60000mb
%nprocshared=32
#P B3LYP/GenECP opt=(Tight,steep) SCF=(YQC,MaxCycle=900) int=(Grid=Ultrafine) EmpiricalDispersion=GD3 SCRF=(PCM,Solvent=DiMethylSulfoxide)

4_B_dmso

4 1
 N(PDBName=N,ResName=MOL,ResNum=1)                   0    2.86300000    3.82400000   21.82700000 L
 N(PDBName=N,ResName=MOL,ResNum=1)                   0    5.65300000    6.23000000   23.40800000 L
 C(PDBName=C,ResName=MOL,ResNum=1)                   0    2.42100000    4.38400000   20.67200000 L
 C(PDBName=C,ResName=MOL,ResNum=1)                   0    5.80300000    7.30400000   22.59100000 L
 H(PDBName=H,ResName=MOL,ResNum=1)                   0    2.77400000    5.39500000   20.45800000 L
 H(PDBName=H,ResName=MOL,ResNum=1)                   0    5.08400000    7.39500000   21.77400000 L
 C(PDBName=C,ResName=MOL,ResNum=1)                   0    1.58000000    3.73100000   19.81700000 L
 C(PDBName=C,ResName=MOL,ResNum=1)                   0    6.79000000    8.22900000   22.77200000 L
 H(PDBName=H,ResName=MOL,ResNum=1)                   0    1.25000000    4.19500000   18.90100000 L
 H(PDBName=H,ResName=MOL,ResNum=1)                   0    6.89200000    9.07000000   22.10400000 L
 C(PDBName=C,ResName=MOL,ResNum=1)                   0    1.13000000    2.43500000   20.13200000 L
 C(PDBName=C,ResName=MOL,ResNum=1)                   0    7.69000000    8.09200000   23.84600000 L
 C(PDBName=C,ResName=MOL,ResNum=1)                   0    0.27100000    1.69100000   19.27900000 L
 C(PDBName=C,ResName=MOL,ResNum=1)                   0    8.75300000    9.00500000   24.08100000 L
 C(PDBName=C,ResName=MOL,ResNum=1)                   0   -0.15700000    0.43800000   19.68600000 L
 C(PDBName=C,ResName=MOL,ResNum=1)                   0    9.56700000    8.81800000   25.18500000 L
 H(PDBName=H,ResName=MOL,ResNum=1)                   0   -0.81700000   -0.12900000   19.04600000 L
 H(PDBName=H,ResName=MOL,ResNum=1)                   0   10.37000000    9.51300000   25.37400000 L
 C(PDBName=C,ResName=MOL,ResNum=1)                   0    0.25700000   -0.10300000   20.90800000 L
 C(PDBName=C,ResName=MOL,ResNum=1)                   0    9.36400000    7.74100000   26.05400000 L
 C(PDBName=C,ResName=MOL,ResNum=1)                   0    1.10700000    0.58400000   21.73700000 L
 C(PDBName=C,ResName=MOL,ResNum=1)                   0    8.36200000    6.83000000   25.83500000 L
 H(PDBName=H,ResName=MOL,ResNum=1)                   0    1.43100000    0.15700000   22.67300000 L
 H(PDBName=H,ResName=MOL,ResNum=1)                   0    8.21800000    5.99500000   26.50300000 L
 C(PDBName=C,ResName=MOL,ResNum=1)                   0    1.56200000    1.86600000   21.36600000 L
 C(PDBName=C,ResName=MOL,ResNum=1)                   0    7.50600000    6.98600000   24.72600000 L
 C(PDBName=C,ResName=MOL,ResNum=1)                   0    2.44600000    2.62200000   22.16100000 L
 C(PDBName=C,ResName=MOL,ResNum=1)                   0    6.46500000    6.08200000   24.43200000 L
 H(PDBName=H,ResName=MOL,ResNum=1)                   0    2.81300000    2.21000000   23.09800000 L
 H(PDBName=H,ResName=MOL,ResNum=1)                   0    6.30800000    5.21500000   25.07000000 L
 C(PDBName=C,ResName=MOL,ResNum=1)                   0   -0.11200000    2.23300000   18.03800000 L
 C(PDBName=C,ResName=MOL,ResNum=1)                   0    8.96500000   10.06700000   23.18000000 L
 C(PDBName=C,ResName=MOL,ResNum=1)                   0   -0.39800000    2.71800000   16.96700000 L
 C(PDBName=C,ResName=MOL,ResNum=1)                   0    9.13500000   10.95000000   22.37100000 L
 C(PDBName=C,ResName=MOL,ResNum=1)                   0   -0.74500000    3.25900000   15.71100000 L
 C(PDBName=C,ResName=MOL,ResNum=1)                   0    9.35600000   11.98800000   21.44100000 L
 C(PDBName=C,ResName=MOL,ResNum=1)                   0   -0.12900000    4.42300000   15.25400000 L
 C(PDBName=C,ResName=MOL,ResNum=1)                   0    8.65300000   12.01400000   20.23800000 L
 H(PDBName=H,ResName=MOL,ResNum=1)                   0    0.61700000    4.91800000   15.86000000 L
 H(PDBName=H,ResName=MOL,ResNum=1)                   0    7.93400000   11.23900000   20.01100000 L
 C(PDBName=C,ResName=MOL,ResNum=1)                   0   -0.47700000    4.94800000   14.01000000 L
 C(PDBName=C,ResName=MOL,ResNum=1)                   0    8.88200000   13.04200000   19.32400000 L
 C(PDBName=C,ResName=MOL,ResNum=1)                   0   -1.44200000    4.30400000   13.22500000 L
 C(PDBName=C,ResName=MOL,ResNum=1)                   0    9.81500000   14.04400000   19.61900000 L
 H(PDBName=H,ResName=MOL,ResNum=1)                   0   -1.70600000    4.71600000   12.26300000 L
 H(PDBName=H,ResName=MOL,ResNum=1)                   0    9.98700000   14.83600000   18.90800000 L
 C(PDBName=C,ResName=MOL,ResNum=1)                   0   -2.04700000    3.14900000   13.68500000 L
 C(PDBName=C,ResName=MOL,ResNum=1)                   0   10.50900000   14.01000000   20.81500000 L
 H(PDBName=H,ResName=MOL,ResNum=1)                   0   -2.79000000    2.65500000   13.07900000 L
 H(PDBName=H,ResName=MOL,ResNum=1)                   0   11.22800000   14.78200000   21.03800000 L
 C(PDBName=C,ResName=MOL,ResNum=1)                   0   -1.70700000    2.62300000   14.91900000 L
 C(PDBName=C,ResName=MOL,ResNum=1)                   0   10.28800000   12.99200000   21.72500000 L
 H(PDBName=H,ResName=MOL,ResNum=1)                   0   -2.17900000    1.72200000   15.27900000 L
 H(PDBName=H,ResName=MOL,ResNum=1)                   0   10.82800000   12.96500000   22.65900000 L
 C(PDBName=C,ResName=MOL,ResNum=1)                   0    0.12600000    6.12500000   13.52500000 L
 C(PDBName=C,ResName=MOL,ResNum=1)                   0    8.18300000   13.09600000   18.10300000 L
 C(PDBName=C,ResName=MOL,ResNum=1)                   0    0.62200000    7.13700000   13.08300000 L
 C(PDBName=C,ResName=MOL,ResNum=1)                   0    7.59500000   13.17200000   17.04700000 L
 C(PDBName=C,ResName=MOL,ResNum=1)                   0    1.12500000    8.31200000   12.50000000 L
 C(PDBName=C,ResName=MOL,ResNum=1)                   0    6.94800000   13.35600000   15.81400000 L
 C(PDBName=C,ResName=MOL,ResNum=1)                   0    2.15000000    9.05400000   13.09900000 L
 C(PDBName=C,ResName=MOL,ResNum=1)                   0    6.03700000   12.42000000   15.31000000 L
 H(PDBName=H,ResName=MOL,ResNum=1)                   0    2.59600000    8.72300000   14.03400000 L
 H(PDBName=H,ResName=MOL,ResNum=1)                   0    5.81900000   11.50900000   15.86300000 L
 N(PDBName=N,ResName=MOL,ResNum=1)                   0    2.62000000   10.17800000   12.56600000 L
 N(PDBName=N,ResName=MOL,ResNum=1)                   0    5.40400000   12.59300000   14.15300000 L
 C(PDBName=C,ResName=MOL,ResNum=1)                   0    2.11000000   10.63000000   11.41700000 L
 C(PDBName=C,ResName=MOL,ResNum=1)                   0    5.63600000   13.69200000   13.43000000 L
 H(PDBName=H,ResName=MOL,ResNum=1)                   0    2.52300000   11.56000000   11.02300000 L
 H(PDBName=H,ResName=MOL,ResNum=1)                   0    5.08800000   13.79300000   12.49200000 L
 C(PDBName=C,ResName=MOL,ResNum=1)                   0    1.10000000    9.95400000   10.74700000 L
 C(PDBName=C,ResName=MOL,ResNum=1)                   0    6.53000000   14.66800000   13.84500000 L
 H(PDBName=H,ResName=MOL,ResNum=1)                   0    0.71400000   10.34300000    9.81900000 L
 H(PDBName=H,ResName=MOL,ResNum=1)                   0    6.69900000   15.54000000   13.23600000 L
 C(PDBName=C,ResName=MOL,ResNum=1)                   0    0.59900000    8.78600000   11.28700000 L
 C(PDBName=C,ResName=MOL,ResNum=1)                   0    7.19500000   14.50500000   15.04500000 L
 H(PDBName=H,ResName=MOL,ResNum=1)                   0   -0.18800000    8.23700000   10.79500000 L
 H(PDBName=H,ResName=MOL,ResNum=1)                   0    7.89400000   15.24500000   15.39900000 L
 N(PDBName=N,ResName=MOL,ResNum=1)                   0    5.66800000    4.04800000   21.61800000 L
 N(PDBName=N,ResName=MOL,ResNum=1)                   0    2.62500000   12.21500000   14.53200000 L
 C(PDBName=C,ResName=MOL,ResNum=1)                   0    5.92400000    4.56100000   20.39100000 L
 C(PDBName=C,ResName=MOL,ResNum=1)                   0    2.41300000   11.66100000   15.75200000 L
 H(PDBName=H,ResName=MOL,ResNum=1)                   0    5.34100000    5.43300000   20.10100000 L
 H(PDBName=H,ResName=MOL,ResNum=1)                   0    3.02700000   10.79400000   15.99700000 L
 C(PDBName=C,ResName=MOL,ResNum=1)                   0    6.85900000    4.02300000   19.55400000 L
 C(PDBName=C,ResName=MOL,ResNum=1)                   0    1.48500000   12.15600000   16.62500000 L
 H(PDBName=H,ResName=MOL,ResNum=1)                   0    7.04300000    4.45100000   18.58100000 L
 H(PDBName=H,ResName=MOL,ResNum=1)                   0    1.33400000   11.69900000   17.59100000 L
 C(PDBName=C,ResName=MOL,ResNum=1)                   0    7.59600000    2.89500000   19.95800000 L
 C(PDBName=C,ResName=MOL,ResNum=1)                   0    0.71300000   13.27800000   16.26900000 L
 C(PDBName=C,ResName=MOL,ResNum=1)                   0    8.58400000    2.28300000   19.13900000 L
 C(PDBName=C,ResName=MOL,ResNum=1)                   0   -0.26900000   13.84800000   17.12400000 L
 C(PDBName=C,ResName=MOL,ResNum=1)                   0    9.26200000    1.17400000   19.61800000 L
 C(PDBName=C,ResName=MOL,ResNum=1)                   0   -0.98200000   14.95300000   16.68600000 L
 H(PDBName=H,ResName=MOL,ResNum=1)                   0   10.01300000    0.70600000   19.00100000 L
 H(PDBName=H,ResName=MOL,ResNum=1)                   0   -1.72800000   15.38800000   17.33300000 L
 C(PDBName=C,ResName=MOL,ResNum=1)                   0    8.98900000    0.65500000   20.88800000 L
 C(PDBName=C,ResName=MOL,ResNum=1)                   0   -0.75000000   15.51100000   15.42500000 L
 C(PDBName=C,ResName=MOL,ResNum=1)                   0    8.04000000    1.22600000   21.69900000 L
 C(PDBName=C,ResName=MOL,ResNum=1)                   0    0.19200000   14.98100000   14.58000000 L
 H(PDBName=H,ResName=MOL,ResNum=1)                   0    7.83300000    0.82200000   22.67700000 L
 H(PDBName=H,ResName=MOL,ResNum=1)                   0    0.36800000   15.41300000   13.60800000 L
 C(PDBName=C,ResName=MOL,ResNum=1)                   0    7.32600000    2.35600000   21.25100000 L
 C(PDBName=C,ResName=MOL,ResNum=1)                   0    0.94000000   13.85700000   14.98400000 L
 C(PDBName=C,ResName=MOL,ResNum=1)                   0    6.34000000    2.99200000   22.03000000 L
 C(PDBName=C,ResName=MOL,ResNum=1)                   0    1.92000000   13.26400000   14.16600000 L
 H(PDBName=H,ResName=MOL,ResNum=1)                   0    6.10600000    2.60900000   23.02200000 L
 H(PDBName=H,ResName=MOL,ResNum=1)                   0    2.11900000   13.68100000   13.18000000 L
 C(PDBName=C,ResName=MOL,ResNum=1)                   0    8.85700000    2.80800000   17.86100000 L
 C(PDBName=C,ResName=MOL,ResNum=1)                   0   -0.51500000   13.29900000   18.39700000 L
 C(PDBName=C,ResName=MOL,ResNum=1)                   0    9.08000000    3.27100000   16.76700000 L
 C(PDBName=C,ResName=MOL,ResNum=1)                   0   -0.75000000   12.85100000   19.49600000 L
 C(PDBName=C,ResName=MOL,ResNum=1)                   0    9.35900000    3.79100000   15.48500000 L
 C(PDBName=C,ResName=MOL,ResNum=1)                   0   -1.04900000   12.35600000   20.78300000 L
 C(PDBName=C,ResName=MOL,ResNum=1)                   0    8.66900000    4.90500000   15.01200000 L
 C(PDBName=C,ResName=MOL,ResNum=1)                   0   -0.37700000   11.24700000   21.29200000 L
 H(PDBName=H,ResName=MOL,ResNum=1)                   0    7.91300000    5.37800000   15.62400000 L
 H(PDBName=H,ResName=MOL,ResNum=1)                   0    0.38500000   10.75400000   20.70400000 L
 C(PDBName=C,ResName=MOL,ResNum=1)                   0    8.95400000    5.41000000   13.74300000 L
 C(PDBName=C,ResName=MOL,ResNum=1)                   0   -0.68800000   10.77400000   22.56700000 L
 C(PDBName=C,ResName=MOL,ResNum=1)                   0    9.93300000    4.79600000   12.95100000 L
 C(PDBName=C,ResName=MOL,ResNum=1)                   0   -1.67300000   11.41200000   23.32900000 L
 H(PDBName=H,ResName=MOL,ResNum=1)                   0   10.14800000    5.19200000   11.97100000 L
 H(PDBName=H,ResName=MOL,ResNum=1)                   0   -1.90800000   11.03900000   24.31400000 L
 C(PDBName=C,ResName=MOL,ResNum=1)                   0   10.61300000    3.69100000   13.42900000 L
 C(PDBName=C,ResName=MOL,ResNum=1)                   0   -2.33600000   12.51200000   22.81600000 L
 H(PDBName=H,ResName=MOL,ResNum=1)                   0   11.36700000    3.22100000   12.81600000 L
 H(PDBName=H,ResName=MOL,ResNum=1)                   0   -3.09500000   13.00200000   23.40500000 L
 C(PDBName=C,ResName=MOL,ResNum=1)                   0   10.33500000    3.18500000   14.68600000 L
 C(PDBName=C,ResName=MOL,ResNum=1)                   0   -2.03300000   12.98700000   21.55300000 L
 H(PDBName=H,ResName=MOL,ResNum=1)                   0   10.86600000    2.32300000   15.05900000 L
 H(PDBName=H,ResName=MOL,ResNum=1)                   0   -2.55000000   13.84500000   21.15200000 L
 C(PDBName=C,ResName=MOL,ResNum=1)                   0    8.26800000    6.53400000   13.24500000 L
 C(PDBName=C,ResName=MOL,ResNum=1)                   0   -0.01400000    9.65300000   23.09200000 L
 C(PDBName=C,ResName=MOL,ResNum=1)                   0    7.69200000    7.49900000   12.79600000 L
 C(PDBName=C,ResName=MOL,ResNum=1)                   0    0.55600000    8.69200000   23.55600000 L
 C(PDBName=C,ResName=MOL,ResNum=1)                   0    7.06200000    8.61300000   12.21500000 L
 C(PDBName=C,ResName=MOL,ResNum=1)                   0    1.21600000    7.57600000   24.09800000 L
 C(PDBName=C,ResName=MOL,ResNum=1)                   0    6.06400000    9.32200000   12.89200000 L
 C(PDBName=C,ResName=MOL,ResNum=1)                   0    2.20500000    6.91300000   23.36400000 L
 H(PDBName=H,ResName=MOL,ResNum=1)                   0    5.75300000    9.02000000   13.89200000 L
 H(PDBName=H,ResName=MOL,ResNum=1)                   0    2.46600000    7.26200000   22.36600000 L
 N(PDBName=N,ResName=MOL,ResNum=1)                   0    5.45400000   10.37900000   12.36000000 L
 N(PDBName=N,ResName=MOL,ResNum=1)                   0    2.85700000    5.85400000   23.83300000 L
 C(PDBName=C,ResName=MOL,ResNum=1)                   0    5.79500000   10.79400000   11.13800000 L
 C(PDBName=C,ResName=MOL,ResNum=1)                   0    2.57100000    5.38900000   25.05100000 L
 H(PDBName=H,ResName=MOL,ResNum=1)                   0    5.26900000   11.66100000   10.74600000 L
 H(PDBName=H,ResName=MOL,ResNum=1)                   0    3.13200000    4.52000000   25.39000000 L
 C(PDBName=C,ResName=MOL,ResNum=1)                   0    6.77500000   10.15100000   10.39400000 L
 C(PDBName=C,ResName=MOL,ResNum=1)                   0    1.60500000    5.98400000   25.85000000 L
 H(PDBName=H,ResName=MOL,ResNum=1)                   0    7.02600000   10.51200000    9.41000000 L
 H(PDBName=H,ResName=MOL,ResNum=1)                   0    1.39700000    5.58500000   26.83000000 L
 C(PDBName=C,ResName=MOL,ResNum=1)                   0    7.41700000    9.05300000   10.93000000 L
 C(PDBName=C,ResName=MOL,ResNum=1)                   0    0.91800000    7.08600000   25.37800000 L
 H(PDBName=H,ResName=MOL,ResNum=1)                   0    8.18300000    8.53100000   10.37800000 L
 H(PDBName=H,ResName=MOL,ResNum=1)                   0    0.16100000    7.57000000   25.97600000 L
 H(PDBName=H,ResName=MOL,ResNum=1)                   0   -1.32500000   16.37100000   15.12000000 L
 H(PDBName=H,ResName=MOL,ResNum=1)                   0   10.01700000    7.62800000   26.90600000 L
 H(PDBName=H,ResName=MOL,ResNum=1)                   0    9.53700000   -0.20900000   21.22800000 L
 H(PDBName=H,ResName=MOL,ResNum=1)                   0   -0.09900000   -1.08100000   21.19300000 L
 Pd(PDBName=Pd,ResName=MOL,ResNum=1)                 0    4.03200000   11.33100000   13.40700000 L
 Pd(PDBName=Pd,ResName=MOL,ResNum=1)                 0    4.25700000    4.95800000   22.72400000 L


C H N 0
6-31G(d)
****
Pd 0
SDD
****

Pd 0
SDD




