%chk=4_D_dmso.chk
%mem=60000mb
%nprocshared=24
#P B3LYP/GenECP opt=(Tight,steep) SCF=(YQC,MaxCycle=900) int=(Grid=Ultrafine) EmpiricalDispersion=GD3 SCRF=(PCM,Solvent=DiMethylSulfoxide)

4_D_dmso

4 1
 Pd(PDBName=Pd,ResName=MOL,ResNum=1)                 0    4.39200000    4.41300000   22.17600000 L
 Pd(PDBName=Pd,ResName=MOL,ResNum=1)                 0    3.83900000   11.71700000   13.58000000 L
 N(PDBName=N,ResName=MOL,ResNum=1)                   0    2.43400000   10.48800000   12.83400000 L
 N(PDBName=N,ResName=MOL,ResNum=1)                   0    5.26000000   12.74200000   14.56600000 L
 C(PDBName=C,ResName=MOL,ResNum=1)                   0    2.22400000    9.42500000   13.65300000 L
 C(PDBName=C,ResName=MOL,ResNum=1)                   0    5.59800000   12.12200000   15.72600000 L
 H(PDBName=H,ResName=MOL,ResNum=1)                   0    2.82700000    9.39100000   14.56400000 L
 H(PDBName=H,ResName=MOL,ResNum=1)                   0    5.06800000   11.19300000   15.95000000 L
 C(PDBName=C,ResName=MOL,ResNum=1)                   0    1.31400000    8.44900000   13.36500000 L
 C(PDBName=C,ResName=MOL,ResNum=1)                   0    6.54400000   12.62400000   16.57300000 L
 H(PDBName=H,ResName=MOL,ResNum=1)                   0    1.16500000    7.61400000   14.03200000 L
 H(PDBName=H,ResName=MOL,ResNum=1)                   0    6.79500000   12.11400000   17.49000000 L
 C(PDBName=C,ResName=MOL,ResNum=1)                   0    0.55500000    8.52600000   12.18200000 L
 C(PDBName=C,ResName=MOL,ResNum=1)                   0    7.20600000   13.82400000   16.25300000 L
 C(PDBName=C,ResName=MOL,ResNum=1)                   0   -0.40900000    7.54600000   11.82000000 L
 C(PDBName=C,ResName=MOL,ResNum=1)                   0    8.20000000   14.40300000   17.08800000 L
 C(PDBName=C,ResName=MOL,ResNum=1)                   0   -1.11200000    7.70100000   10.63600000 L
 C(PDBName=C,ResName=MOL,ResNum=1)                   0    8.80100000   15.58700000   16.69500000 L
 H(PDBName=H,ResName=MOL,ResNum=1)                   0   -1.84500000    6.96000000   10.35600000 L
 H(PDBName=H,ResName=MOL,ResNum=1)                   0    9.55600000   16.03100000   17.32500000 L
 C(PDBName=C,ResName=MOL,ResNum=1)                   0   -0.88600000    8.80100000    9.80200000 L
 C(PDBName=C,ResName=MOL,ResNum=1)                   0    8.44300000   16.21400000   15.49600000 L
 C(PDBName=C,ResName=MOL,ResNum=1)                   0    0.03900000    9.76100000   10.12900000 L
 C(PDBName=C,ResName=MOL,ResNum=1)                   0    7.48600000   15.67600000   14.67200000 L
 H(PDBName=H,ResName=MOL,ResNum=1)                   0    0.20900000   10.60700000    9.48100000 L
 H(PDBName=H,ResName=MOL,ResNum=1)                   0    7.21400000   16.16400000   13.74900000 L
 C(PDBName=C,ResName=MOL,ResNum=1)                   0    0.77700000    9.64300000   11.32400000 L
 C(PDBName=C,ResName=MOL,ResNum=1)                   0    6.84900000   14.47200000   15.03400000 L
 C(PDBName=C,ResName=MOL,ResNum=1)                   0    1.74100000   10.59100000   11.72000000 L
 C(PDBName=C,ResName=MOL,ResNum=1)                   0    5.85900000   13.86500000   14.23600000 L
 H(PDBName=H,ResName=MOL,ResNum=1)                   0    1.93500000   11.45500000   11.09000000 L
 H(PDBName=H,ResName=MOL,ResNum=1)                   0    5.56300000   14.33200000   13.30000000 L
 C(PDBName=C,ResName=MOL,ResNum=1)                   0   -0.63200000    6.44200000   12.66400000 L
 C(PDBName=C,ResName=MOL,ResNum=1)                   0    8.55600000   13.76700000   18.29300000 L
 C(PDBName=C,ResName=MOL,ResNum=1)                   0   -0.80900000    5.50000000   13.40300000 L
 C(PDBName=C,ResName=MOL,ResNum=1)                   0    8.84600000   13.20400000   19.32300000 L
 C(PDBName=C,ResName=MOL,ResNum=1)                   0   -1.03700000    4.39100000   14.24500000 L
 C(PDBName=C,ResName=MOL,ResNum=1)                   0    9.20500000   12.57100000   20.53200000 L
 C(PDBName=C,ResName=MOL,ResNum=1)                   0   -0.32400000    4.25200000   15.43400000 L
 C(PDBName=C,ResName=MOL,ResNum=1)                   0    8.59400000   11.37800000   20.91100000 L
 H(PDBName=H,ResName=MOL,ResNum=1)                   0    0.40800000    4.99300000   15.72000000 L
 H(PDBName=H,ResName=MOL,ResNum=1)                   0    7.83900000   10.92800000   20.28100000 L
 C(PDBName=C,ResName=MOL,ResNum=1)                   0   -0.55900000    3.15100000   16.25700000 L
 C(PDBName=C,ResName=MOL,ResNum=1)                   0    8.95800000   10.76200000   22.10800000 L
 C(PDBName=C,ResName=MOL,ResNum=1)                   0   -1.50900000    2.19100000   15.88500000 L
 C(PDBName=C,ResName=MOL,ResNum=1)                   0    9.93600000   11.34500000   22.92400000 L
 H(PDBName=H,ResName=MOL,ResNum=1)                   0   -1.68500000    1.34100000   16.52700000 L
 H(PDBName=H,ResName=MOL,ResNum=1)                   0   10.21200000   10.86300000   23.84900000 L
 C(PDBName=C,ResName=MOL,ResNum=1)                   0   -2.21100000    2.33600000   14.70300000 L
 C(PDBName=C,ResName=MOL,ResNum=1)                   0   10.53800000   12.52900000   22.54100000 L
 H(PDBName=H,ResName=MOL,ResNum=1)                   0   -2.94200000    1.59500000   14.42000000 L
 H(PDBName=H,ResName=MOL,ResNum=1)                   0   11.29000000   12.97600000   23.17100000 L
 C(PDBName=C,ResName=MOL,ResNum=1)                   0   -1.98300000    3.42600000   13.88200000 L
 C(PDBName=C,ResName=MOL,ResNum=1)                   0   10.18100000   13.14500000   21.35400000 L
 H(PDBName=H,ResName=MOL,ResNum=1)                   0   -2.53100000    3.54100000   12.96000000 L
 H(PDBName=H,ResName=MOL,ResNum=1)                   0   10.65000000   14.06900000   21.05400000 L
 C(PDBName=C,ResName=MOL,ResNum=1)                   0    0.14800000    2.98800000   17.46400000 L
 C(PDBName=C,ResName=MOL,ResNum=1)                   0    8.35400000    9.55600000   22.51300000 L
 C(PDBName=C,ResName=MOL,ResNum=1)                   0    0.74200000    2.82400000   18.50600000 L
 C(PDBName=C,ResName=MOL,ResNum=1)                   0    7.85100000    8.51900000   22.88400000 L
 C(PDBName=C,ResName=MOL,ResNum=1)                   0    1.39200000    2.56900000   19.72500000 L
 C(PDBName=C,ResName=MOL,ResNum=1)                   0    7.31200000    7.31900000   23.37700000 L
 C(PDBName=C,ResName=MOL,ResNum=1)                   0    2.36500000    3.43900000   20.23200000 L
 C(PDBName=C,ResName=MOL,ResNum=1)                   0    6.32600000    6.61600000   22.67400000 L
 H(PDBName=H,ResName=MOL,ResNum=1)                   0    2.63600000    4.33700000   19.68200000 L
 H(PDBName=H,ResName=MOL,ResNum=1)                   0    5.95800000    6.99300000   21.72300000 L
 N(PDBName=N,ResName=MOL,ResNum=1)                   0    2.99100000    3.21600000   21.38200000 L
 N(PDBName=N,ResName=MOL,ResNum=1)                   0    5.80400000    5.48000000   23.12300000 L
 C(PDBName=C,ResName=MOL,ResNum=1)                   0    2.69500000    2.12700000   22.09800000 L
 C(PDBName=C,ResName=MOL,ResNum=1)                   0    6.22100000    4.97300000   24.28700000 L
 H(PDBName=H,ResName=MOL,ResNum=1)                   0    3.23600000    1.98900000   23.03500000 L
 H(PDBName=H,ResName=MOL,ResNum=1)                   0    5.76200000    4.03900000   24.61200000 L
 C(PDBName=C,ResName=MOL,ResNum=1)                   0    1.74400000    1.21000000   21.67300000 L
 C(PDBName=C,ResName=MOL,ResNum=1)                   0    7.19400000    5.60200000   25.05100000 L
 H(PDBName=H,ResName=MOL,ResNum=1)                   0    1.52700000    0.34100000   22.27300000 L
 H(PDBName=H,ResName=MOL,ResNum=1)                   0    7.50900000    5.16700000   25.98600000 L
 C(PDBName=C,ResName=MOL,ResNum=1)                   0    1.08300000    1.42600000   20.47900000 L
 C(PDBName=C,ResName=MOL,ResNum=1)                   0    7.74800000    6.78400000   24.59900000 L
 H(PDBName=H,ResName=MOL,ResNum=1)                   0    0.33900000    0.73300000   20.12100000 L
 H(PDBName=H,ResName=MOL,ResNum=1)                   0    8.50600000    7.29800000   25.16900000 L
 N(PDBName=N,ResName=MOL,ResNum=1)                   0    5.80900000    3.48800000   21.09100000 L
 N(PDBName=N,ResName=MOL,ResNum=1)                   0    2.96000000    5.54200000   23.02100000 L
 C(PDBName=C,ResName=MOL,ResNum=1)                   0    6.02100000    4.12700000   19.91100000 L
 C(PDBName=C,ResName=MOL,ResNum=1)                   0    2.62000000    6.58500000   22.22100000 L
 H(PDBName=H,ResName=MOL,ResNum=1)                   0    5.41300000    5.01600000   19.72700000 L
 H(PDBName=H,ResName=MOL,ResNum=1)                   0    3.15500000    6.66000000   21.27100000 L
 C(PDBName=C,ResName=MOL,ResNum=1)                   0    6.94000000    3.69200000   19.00000000 L
 C(PDBName=C,ResName=MOL,ResNum=1)                   0    1.66500000    7.49600000   22.57400000 L
 H(PDBName=H,ResName=MOL,ResNum=1)                   0    7.09000000    4.21600000   18.06900000 L
 H(PDBName=H,ResName=MOL,ResNum=1)                   0    1.41300000    8.31700000   21.92100000 L
 C(PDBName=C,ResName=MOL,ResNum=1)                   0    7.70600000    2.54200000   19.27100000 L
 C(PDBName=C,ResName=MOL,ResNum=1)                   0    0.99700000    7.36800000   23.80600000 L
 C(PDBName=C,ResName=MOL,ResNum=1)                   0    8.67900000    2.03400000   18.36800000 L
 C(PDBName=C,ResName=MOL,ResNum=1)                   0   -0.00600000    8.27800000   24.23600000 L
 C(PDBName=C,ResName=MOL,ResNum=1)                   0    9.38800000    0.89600000   18.71600000 L
 C(PDBName=C,ResName=MOL,ResNum=1)                   0   -0.61400000    8.07700000   25.46500000 L
 H(PDBName=H,ResName=MOL,ResNum=1)                   0   10.12800000    0.50600000   18.03400000 L
 H(PDBName=H,ResName=MOL,ResNum=1)                   0   -1.37600000    8.76500000   25.79700000 L
 C(PDBName=C,ResName=MOL,ResNum=1)                   0    9.15900000    0.24800000   19.93400000 L
 C(PDBName=C,ResName=MOL,ResNum=1)                   0   -0.25300000    6.99800000   26.27900000 L
 C(PDBName=C,ResName=MOL,ResNum=1)                   0    8.22500000    0.71900000   20.82400000 L
 C(PDBName=C,ResName=MOL,ResNum=1)                   0    0.71200000    6.10400000   25.88700000 L
 H(PDBName=H,ResName=MOL,ResNum=1)                   0    8.05300000    0.21500000   21.76200000 L
 H(PDBName=H,ResName=MOL,ResNum=1)                   0    0.98600000    5.27400000   26.51900000 L
 C(PDBName=C,ResName=MOL,ResNum=1)                   0    7.48100000    1.87300000   20.51000000 L
 C(PDBName=C,ResName=MOL,ResNum=1)                   0    1.35600000    6.27100000   24.64400000 L
 C(PDBName=C,ResName=MOL,ResNum=1)                   0    6.50800000    2.41100000   21.37600000 L
 C(PDBName=C,ResName=MOL,ResNum=1)                   0    2.35400000    5.39300000   24.17900000 L
 H(PDBName=H,ResName=MOL,ResNum=1)                   0    6.31200000    1.92600000   22.32900000 L
 H(PDBName=H,ResName=MOL,ResNum=1)                   0    2.65200000    4.54600000   24.79300000 L
 C(PDBName=C,ResName=MOL,ResNum=1)                   0    8.90500000    2.69000000   17.14300000 L
 C(PDBName=C,ResName=MOL,ResNum=1)                   0   -0.36400000    9.36300000   23.41300000 L
 C(PDBName=C,ResName=MOL,ResNum=1)                   0    9.08400000    3.26900000   16.09600000 L
 C(PDBName=C,ResName=MOL,ResNum=1)                   0   -0.65700000   10.28700000   22.69000000 L
 C(PDBName=C,ResName=MOL,ResNum=1)                   0    9.31400000    3.92300000   14.86700000 L
 C(PDBName=C,ResName=MOL,ResNum=1)                   0   -1.01900000   11.37600000   21.86800000 L
 C(PDBName=C,ResName=MOL,ResNum=1)                   0    8.59600000    5.06900000   14.53300000 L
 C(PDBName=C,ResName=MOL,ResNum=1)                   0   -0.40100000   11.56200000   20.63300000 L
 H(PDBName=H,ResName=MOL,ResNum=1)                   0    7.85600000    5.46700000   15.21500000 L
 H(PDBName=H,ResName=MOL,ResNum=1)                   0    0.36100000   10.87300000   20.29600000 L
 C(PDBName=C,ResName=MOL,ResNum=1)                   0    8.83300000    5.70500000   13.31500000 L
 C(PDBName=C,ResName=MOL,ResNum=1)                   0   -0.76700000   12.64300000   19.83100000 L
 C(PDBName=C,ResName=MOL,ResNum=1)                   0    9.79100000    5.19000000   12.43300000 L
 C(PDBName=C,ResName=MOL,ResNum=1)                   0   -1.75400000   13.53500000   20.27000000 L
 H(PDBName=H,ResName=MOL,ResNum=1)                   0    9.96900000    5.68700000   11.49200000 L
 H(PDBName=H,ResName=MOL,ResNum=1)                   0   -2.03200000   14.36900000   19.64400000 L
 C(PDBName=C,ResName=MOL,ResNum=1)                   0   10.49900000    4.05200000   12.77200000 L
 C(PDBName=C,ResName=MOL,ResNum=1)                   0   -2.36200000   13.34300000   21.49600000 L
 H(PDBName=H,ResName=MOL,ResNum=1)                   0   11.23600000    3.65800000   12.09000000 L
 H(PDBName=H,ResName=MOL,ResNum=1)                   0   -3.12200000   14.03100000   21.83100000 L
 C(PDBName=C,ResName=MOL,ResNum=1)                   0   10.26900000    3.41600000   13.97800000 L
 C(PDBName=C,ResName=MOL,ResNum=1)                   0   -2.00300000   12.27300000   22.29700000 L
 H(PDBName=H,ResName=MOL,ResNum=1)                   0   10.82100000    2.52800000   14.24400000 L
 H(PDBName=H,ResName=MOL,ResNum=1)                   0   -2.47700000   12.12200000   23.25400000 L
 C(PDBName=C,ResName=MOL,ResNum=1)                   0    8.11900000    6.86500000   12.95600000 L
 C(PDBName=C,ResName=MOL,ResNum=1)                   0   -0.15700000   12.85200000   18.57900000 L
 C(PDBName=C,ResName=MOL,ResNum=1)                   0    7.52000000    7.86300000   12.62300000 L
 C(PDBName=C,ResName=MOL,ResNum=1)                   0    0.35100000   13.05500000   17.49900000 L
 C(PDBName=C,ResName=MOL,ResNum=1)                   0    6.86500000    9.02100000   12.17100000 L
 C(PDBName=C,ResName=MOL,ResNum=1)                   0    0.89500000   13.35300000   16.23900000 L
 C(PDBName=C,ResName=MOL,ResNum=1)                   0    5.88400000    9.65400000   12.94200000 L
 C(PDBName=C,ResName=MOL,ResNum=1)                   0    1.88800000   12.55100000   15.66400000 L
 H(PDBName=H,ResName=MOL,ResNum=1)                   0    5.60900000    9.25400000   13.91600000 L
 H(PDBName=H,ResName=MOL,ResNum=1)                   0    2.25900000   11.67500000   16.19000000 L
 N(PDBName=N,ResName=MOL,ResNum=1)                   0    5.25200000   10.75000000   12.53400000 L
 N(PDBName=N,ResName=MOL,ResNum=1)                   0    2.41600000   12.81400000   14.47300000 L
 C(PDBName=C,ResName=MOL,ResNum=1)                   0    5.55200000   11.28200000   11.34500000 L
 C(PDBName=C,ResName=MOL,ResNum=1)                   0    1.99600000   13.87900000   13.78300000 L
 H(PDBName=H,ResName=MOL,ResNum=1)                   0    5.00600000   12.18100000   11.05600000 L
 H(PDBName=H,ResName=MOL,ResNum=1)                   0    2.46000000   14.05300000   12.81100000 L
 C(PDBName=C,ResName=MOL,ResNum=1)                   0    6.51100000   10.72200000   10.51400000 L
 C(PDBName=C,ResName=MOL,ResNum=1)                   0    1.01600000   14.72900000   14.27500000 L
 H(PDBName=H,ResName=MOL,ResNum=1)                   0    6.73000000   11.17600000    9.56100000 L
 H(PDBName=H,ResName=MOL,ResNum=1)                   0    0.69900000   15.58000000   13.69500000 L
 C(PDBName=C,ResName=MOL,ResNum=1)                   0    7.17700000    9.58300000   10.92300000 L
 C(PDBName=C,ResName=MOL,ResNum=1)                   0    0.45700000   14.47000000   15.51100000 L
 H(PDBName=H,ResName=MOL,ResNum=1)                   0    7.92800000    9.12300000   10.30100000 L
 H(PDBName=H,ResName=MOL,ResNum=1)                   0   -0.30700000   15.11100000   15.92300000 L
 H(PDBName=H,ResName=MOL,ResNum=1)                   0   -0.74800000    6.87200000   27.22900000 L
 H(PDBName=H,ResName=MOL,ResNum=1)                   0    8.93200000   17.13500000   15.22300000 L
 H(PDBName=H,ResName=MOL,ResNum=1)                   0    9.73100000   -0.63600000   20.17100000 L
 H(PDBName=H,ResName=MOL,ResNum=1)                   0   -1.45200000    8.88800000    8.88800000 L


C H N 0
6-31G(d)
****
Pd 0
SDD
****

Pd 0
SDD




