%chk=5_A_dmso.chk
%mem=60000mb
%nprocshared=32
#P B3LYP/GenECP opt=(Tight,steep) SCF=(YQC,MaxCycle=900) int=(Grid=Ultrafine) EmpiricalDispersion=GD3 SCRF=(PCM,Solvent=DiMethylSulfoxide)

5_A_dmso

4 1
 N(PDBName=N,ResName=MOL,ResNum=1)                   0    3.08100000    3.89000000   21.57700000 L
 N(PDBName=N,ResName=MOL,ResNum=1)                   0    5.85000000    6.25100000   23.26600000 L
 C(PDBName=C,ResName=MOL,ResNum=1)                   0    2.65500000    4.29500000   20.38200000 L
 C(PDBName=C,ResName=MOL,ResNum=1)                   0    6.19800000    7.29100000   22.51100000 L
 H(PDBName=H,ResName=MOL,ResNum=1)                   0    3.06900000    5.22600000   19.99100000 L
 H(PDBName=H,ResName=MOL,ResNum=1)                   0    5.67500000    7.41800000   21.56100000 L
 C(PDBName=C,ResName=MOL,ResNum=1)                   0    1.72400000    3.57900000   19.62800000 L
 C(PDBName=C,ResName=MOL,ResNum=1)                   0    7.19200000    8.19600000   22.88400000 L
 C(PDBName=C,ResName=MOL,ResNum=1)                   0    1.21700000    2.39200000   20.17500000 L
 C(PDBName=C,ResName=MOL,ResNum=1)                   0    7.82600000    7.99700000   24.11900000 L
 C(PDBName=C,ResName=MOL,ResNum=1)                   0    1.66200000    1.98900000   21.42100000 L
 C(PDBName=C,ResName=MOL,ResNum=1)                   0    7.44500000    6.92000000   24.89700000 L
 C(PDBName=C,ResName=MOL,ResNum=1)                   0    2.60000000    2.75900000   22.09600000 L
 C(PDBName=C,ResName=MOL,ResNum=1)                   0    6.45600000    6.05800000   24.43800000 L
 H(PDBName=H,ResName=MOL,ResNum=1)                   0    2.97500000    2.46600000   23.07300000 L
 H(PDBName=H,ResName=MOL,ResNum=1)                   0    6.14200000    5.19600000   25.02000000 L
 C(PDBName=C,ResName=MOL,ResNum=1)                   0    1.34800000    4.04700000   18.35300000 L
 C(PDBName=C,ResName=MOL,ResNum=1)                   0    7.54000000    9.24000000   22.00500000 L
 C(PDBName=C,ResName=MOL,ResNum=1)                   0    1.07200000    4.46000000   17.25100000 L
 C(PDBName=C,ResName=MOL,ResNum=1)                   0    7.82300000   10.09000000   21.19400000 L
 C(PDBName=C,ResName=MOL,ResNum=1)                   0    0.77300000    4.87100000   15.93400000 L
 C(PDBName=C,ResName=MOL,ResNum=1)                   0    8.22900000   11.05000000   20.24300000 L
 C(PDBName=C,ResName=MOL,ResNum=1)                   0    1.02400000    6.18100000   15.52200000 L
 C(PDBName=C,ResName=MOL,ResNum=1)                   0    7.37200000   11.43300000   19.21100000 L
 H(PDBName=H,ResName=MOL,ResNum=1)                   0    1.38100000    6.89700000   16.24900000 L
 H(PDBName=H,ResName=MOL,ResNum=1)                   0    6.36500000   11.04000000   19.19400000 L
 C(PDBName=C,ResName=MOL,ResNum=1)                   0    0.77500000    6.56600000   14.20700000 L
 C(PDBName=C,ResName=MOL,ResNum=1)                   0    7.79700000   12.34300000   18.24700000 L
 C(PDBName=C,ResName=MOL,ResNum=1)                   0    0.27300000    5.61700000   13.31100000 L
 C(PDBName=C,ResName=MOL,ResNum=1)                   0    9.09600000   12.85400000   18.32700000 L
 H(PDBName=H,ResName=MOL,ResNum=1)                   0    0.11000000    5.88100000   12.27800000 L
 H(PDBName=H,ResName=MOL,ResNum=1)                   0    9.46100000   13.52600000   17.56800000 L
 C(PDBName=C,ResName=MOL,ResNum=1)                   0    0.01000000    4.32300000   13.72300000 L
 C(PDBName=C,ResName=MOL,ResNum=1)                   0    9.94100000   12.48400000   19.35900000 L
 H(PDBName=H,ResName=MOL,ResNum=1)                   0   -0.38500000    3.60700000   13.01900000 L
 H(PDBName=H,ResName=MOL,ResNum=1)                   0   10.93600000   12.89700000   19.41000000 L
 C(PDBName=C,ResName=MOL,ResNum=1)                   0    0.25300000    3.94100000   15.02900000 L
 C(PDBName=C,ResName=MOL,ResNum=1)                   0    9.51700000   11.59000000   20.32300000 L
 H(PDBName=H,ResName=MOL,ResNum=1)                   0    0.05100000    2.93300000   15.35500000 L
 H(PDBName=H,ResName=MOL,ResNum=1)                   0   10.16900000   11.29800000   21.13000000 L
 C(PDBName=C,ResName=MOL,ResNum=1)                   0    1.04400000    7.93400000   13.74300000 L
 C(PDBName=C,ResName=MOL,ResNum=1)                   0    6.91900000   12.76900000   17.14800000 L
 C(PDBName=C,ResName=MOL,ResNum=1)                   0    2.07300000    8.70400000   14.28700000 L
 C(PDBName=C,ResName=MOL,ResNum=1)                   0    5.95600000   11.92300000   16.59300000 L
 H(PDBName=H,ResName=MOL,ResNum=1)                   0    2.69400000    8.31100000   15.09000000 L
 H(PDBName=H,ResName=MOL,ResNum=1)                   0    5.80900000   10.91800000   16.98000000 L
 N(PDBName=N,ResName=MOL,ResNum=1)                   0    2.37000000    9.93100000   13.86000000 L
 N(PDBName=N,ResName=MOL,ResNum=1)                   0    5.18700000   12.27500000   15.56200000 L
 C(PDBName=C,ResName=MOL,ResNum=1)                   0    1.67200000   10.46600000   12.85600000 L
 C(PDBName=C,ResName=MOL,ResNum=1)                   0    5.34700000   13.47900000   15.00900000 L
 H(PDBName=H,ResName=MOL,ResNum=1)                   0    1.96300000   11.46000000   12.52000000 L
 H(PDBName=H,ResName=MOL,ResNum=1)                   0    4.73600000   13.71600000   14.14000000 L
 C(PDBName=C,ResName=MOL,ResNum=1)                   0    0.62000000    9.78700000   12.26300000 L
 C(PDBName=C,ResName=MOL,ResNum=1)                   0    6.25300000   14.39900000   15.50800000 L
 H(PDBName=H,ResName=MOL,ResNum=1)                   0    0.06200000   10.24700000   11.46300000 L
 H(PDBName=H,ResName=MOL,ResNum=1)                   0    6.34300000   15.37300000   15.05300000 L
 C(PDBName=C,ResName=MOL,ResNum=1)                   0    0.29500000    8.52000000   12.71500000 L
 C(PDBName=C,ResName=MOL,ResNum=1)                   0    7.03400000   14.04900000   16.59300000 L
 H(PDBName=H,ResName=MOL,ResNum=1)                   0   -0.54100000    7.99500000   12.28100000 L
 H(PDBName=H,ResName=MOL,ResNum=1)                   0    7.72300000   14.76500000   17.01300000 L
 N(PDBName=N,ResName=MOL,ResNum=1)                   0    5.91000000    4.06600000   21.46200000 L
 N(PDBName=N,ResName=MOL,ResNum=1)                   0    3.01500000    6.07500000   23.38100000 L
 C(PDBName=C,ResName=MOL,ResNum=1)                   0    6.18400000    4.51400000   20.23900000 L
 C(PDBName=C,ResName=MOL,ResNum=1)                   0    2.48100000    7.05900000   22.66100000 L
 H(PDBName=H,ResName=MOL,ResNum=1)                   0    5.62900000    5.38500000   19.88800000 L
 C(PDBName=C,ResName=MOL,ResNum=1)                   0    7.13200000    3.91500000   19.40700000 L
 C(PDBName=C,ResName=MOL,ResNum=1)                   0    1.41500000    7.83600000   23.11800000 L
 C(PDBName=C,ResName=MOL,ResNum=1)                   0    7.82400000    2.80200000   19.90600000 L
 C(PDBName=C,ResName=MOL,ResNum=1)                   0    0.91300000    7.56600000   24.39900000 L
 C(PDBName=C,ResName=MOL,ResNum=1)                   0    7.53500000    2.35300000   21.18100000 L
 C(PDBName=C,ResName=MOL,ResNum=1)                   0    1.48700000    6.54900000   25.13900000 L
 C(PDBName=C,ResName=MOL,ResNum=1)                   0    6.56700000    3.00500000   21.93500000 L
 C(PDBName=C,ResName=MOL,ResNum=1)                   0    2.53500000    5.81500000   24.59800000 L
 H(PDBName=H,ResName=MOL,ResNum=1)                   0    6.31200000    2.67400000   22.93700000 L
 H(PDBName=H,ResName=MOL,ResNum=1)                   0    3.00000000    5.00200000   25.14900000 L
 C(PDBName=C,ResName=MOL,ResNum=1)                   0    7.34200000    4.41800000   18.10900000 L
 C(PDBName=C,ResName=MOL,ResNum=1)                   0    0.87000000    8.82300000   22.27400000 L
 C(PDBName=C,ResName=MOL,ResNum=1)                   0    7.47500000    4.85700000   16.99000000 L
 C(PDBName=C,ResName=MOL,ResNum=1)                   0    0.41800000    9.62600000   21.49200000 L
 C(PDBName=C,ResName=MOL,ResNum=1)                   0    7.61100000    5.29500000   15.65500000 L
 C(PDBName=C,ResName=MOL,ResNum=1)                   0   -0.18000000   10.52300000   20.58200000 L
 C(PDBName=C,ResName=MOL,ResNum=1)                   0    7.16900000    6.56200000   15.27200000 L
 C(PDBName=C,ResName=MOL,ResNum=1)                   0    0.53700000   11.00400000   19.48600000 L
 H(PDBName=H,ResName=MOL,ResNum=1)                   0    6.78800000    7.23200000   16.03000000 L
 H(PDBName=H,ResName=MOL,ResNum=1)                   0    1.58000000   10.74200000   19.38600000 L
 C(PDBName=C,ResName=MOL,ResNum=1)                   0    7.26100000    6.96900000   13.94300000 L
 C(PDBName=C,ResName=MOL,ResNum=1)                   0   -0.07400000   11.84900000   18.56400000 L
 C(PDBName=C,ResName=MOL,ResNum=1)                   0    7.80000000    6.08400000   13.00400000 L
 C(PDBName=C,ResName=MOL,ResNum=1)                   0   -1.41700000   12.19300000   18.75100000 L
 H(PDBName=H,ResName=MOL,ResNum=1)                   0    7.84500000    6.36200000   11.96200000 L
 H(PDBName=H,ResName=MOL,ResNum=1)                   0   -1.92400000   12.81100000   18.02600000 L
 C(PDBName=C,ResName=MOL,ResNum=1)                   0    8.25300000    4.83400000   13.38600000 L
 C(PDBName=C,ResName=MOL,ResNum=1)                   0   -2.12300000   11.72600000   19.84500000 L
 H(PDBName=H,ResName=MOL,ResNum=1)                   0    8.67400000    4.16900000   12.64900000 L
 H(PDBName=H,ResName=MOL,ResNum=1)                   0   -3.15500000   12.01100000   19.97700000 L
 C(PDBName=C,ResName=MOL,ResNum=1)                   0    8.16700000    4.43200000   14.70500000 L
 C(PDBName=C,ResName=MOL,ResNum=1)                   0   -1.51400000   10.89700000   20.76700000 L
 H(PDBName=H,ResName=MOL,ResNum=1)                   0    8.51600000    3.45800000   15.00800000 L
 H(PDBName=H,ResName=MOL,ResNum=1)                   0   -2.05900000   10.53000000   21.62300000 L
 C(PDBName=C,ResName=MOL,ResNum=1)                   0    6.78800000    8.29100000   13.51000000 L
 C(PDBName=C,ResName=MOL,ResNum=1)                   0    0.65100000   12.37500000   17.40000000 L
 C(PDBName=C,ResName=MOL,ResNum=1)                   0    5.72000000    8.93100000   14.13900000 L
 C(PDBName=C,ResName=MOL,ResNum=1)                   0    1.66500000   11.65400000   16.76500000 L
 H(PDBName=H,ResName=MOL,ResNum=1)                   0    5.22000000    8.46900000   14.98800000 L
 H(PDBName=H,ResName=MOL,ResNum=1)                   0    1.96800000   10.67700000   17.13500000 L
 N(PDBName=N,ResName=MOL,ResNum=1)                   0    5.24100000   10.11100000   13.74500000 L
 N(PDBName=N,ResName=MOL,ResNum=1)                   0    2.29900000   12.09400000   15.67800000 L
 C(PDBName=C,ResName=MOL,ResNum=1)                   0    5.78500000   10.72300000   12.69100000 L
 C(PDBName=C,ResName=MOL,ResNum=1)                   0    1.94600000   13.26600000   15.14400000 L
 H(PDBName=H,ResName=MOL,ResNum=1)                   0    5.34800000   11.67200000   12.38600000 L
 H(PDBName=H,ResName=MOL,ResNum=1)                   0    2.45000000   13.57200000   14.23000000 L
 C(PDBName=C,ResName=MOL,ResNum=1)                   0    6.86100000   10.17600000   12.01200000 L
 C(PDBName=C,ResName=MOL,ResNum=1)                   0    0.97400000   14.06800000   15.71900000 L
 H(PDBName=H,ResName=MOL,ResNum=1)                   0    7.29100000   10.69700000   11.17200000 L
 H(PDBName=H,ResName=MOL,ResNum=1)                   0    0.72700000   15.01900000   15.27700000 L
 C(PDBName=C,ResName=MOL,ResNum=1)                   0    7.37500000    8.96100000   12.42800000 L
 C(PDBName=C,ResName=MOL,ResNum=1)                   0    0.33200000   13.62800000   16.86200000 L
 H(PDBName=H,ResName=MOL,ResNum=1)                   0    8.23100000    8.54000000   11.92600000 L
 H(PDBName=H,ResName=MOL,ResNum=1)                   0   -0.40500000   14.25400000   17.33900000 L
 Pd(PDBName=Pd,ResName=MOL,ResNum=1)                 0    3.77700000   11.07500000   14.73100000 L
 Pd(PDBName=Pd,ResName=MOL,ResNum=1)                 0    4.46800000    5.03800000   22.47200000 L
 H(PDBName=H,ResName=MOL,ResNum=1)                   0    7.91100000    6.73900000   25.85200000 L
 H(PDBName=H,ResName=MOL,ResNum=1)                   0    8.59700000    8.67700000   24.44700000 L
 H(PDBName=H,ResName=MOL,ResNum=1)                   0    0.49300000    1.81000000   19.62700000 L
 H(PDBName=H,ResName=MOL,ResNum=1)                   0    1.29100000    1.08100000   21.86900000 L
 H(PDBName=H,ResName=MOL,ResNum=1)                   0    0.09300000    8.14600000   24.79100000 L
 H(PDBName=H,ResName=MOL,ResNum=1)                   0    1.12600000    6.31700000   26.12800000 L
 H(PDBName=H,ResName=MOL,ResNum=1)                   0    2.90500000    7.24500000   21.67200000 L
 H(PDBName=H,ResName=MOL,ResNum=1)                   0    8.05000000    1.50000000   21.59400000 L
 H(PDBName=H,ResName=MOL,ResNum=1)                   0    8.56700000    2.31000000   19.29700000 L


C H N 0
6-31G(d)
****
Pd 0
SDD
****

Pd 0
SDD



