%chk=6_B_dmso.chk
%mem=60000mb
%nprocshared=32

#P B3LYP/GenECP opt=(Tight,steep) SCF=(YQC,MaxCycle=1800) int=(Grid=Ultrafine) EmpiricalDispersion=GD3 SCRF=(PCM,Solvent=DiMethylSulfoxide)

6_B_dmso

4 1
 N(PDBName=N,ResName=MOL,ResNum=1)                   0    3.39800000    3.54200000   21.56500000 L
 N(PDBName=N,ResName=MOL,ResNum=1)                   0    6.14000000    5.93200000   23.25300000 L
 C(PDBName=C,ResName=MOL,ResNum=1)                   0    3.03200000    4.01700000   20.37500000 L
 C(PDBName=C,ResName=MOL,ResNum=1)                   0    6.32100000    7.01600000   22.49900000 L
 H(PDBName=H,ResName=MOL,ResNum=1)                   0    3.60400000    4.85300000   19.97000000 L
 H(PDBName=H,ResName=MOL,ResNum=1)                   0    5.81700000    7.04800000   21.53100000 L
 C(PDBName=C,ResName=MOL,ResNum=1)                   0    1.96700000    3.48500000   19.64400000 L
 C(PDBName=C,ResName=MOL,ResNum=1)                   0    7.11200000    8.09400000   22.90000000 L
 C(PDBName=C,ResName=MOL,ResNum=1)                   0    1.28300000    2.38900000   20.19000000 L
 C(PDBName=C,ResName=MOL,ResNum=1)                   0    7.75200000    8.00500000   24.14500000 L
 C(PDBName=C,ResName=MOL,ResNum=1)                   0    1.68000000    1.90200000   21.42000000 L
 C(PDBName=C,ResName=MOL,ResNum=1)                   0    7.56600000    6.86900000   24.90900000 L
 C(PDBName=C,ResName=MOL,ResNum=1)                   0    2.73600000    2.50900000   22.08800000 L
 C(PDBName=C,ResName=MOL,ResNum=1)                   0    6.74600000    5.85100000   24.43700000 L
 H(PDBName=H,ResName=MOL,ResNum=1)                   0    3.05500000    2.15900000   23.06300000 L
 H(PDBName=H,ResName=MOL,ResNum=1)                   0    6.57400000    4.95400000   25.02200000 L
 C(PDBName=C,ResName=MOL,ResNum=1)                   0    1.60000000    4.04500000   18.40600000 L
 C(PDBName=C,ResName=MOL,ResNum=1)                   0    7.22500000    9.22600000   22.07100000 L
 C(PDBName=C,ResName=MOL,ResNum=1)                   0    1.27300000    4.53300000   17.34900000 L
 C(PDBName=C,ResName=MOL,ResNum=1)                   0    7.27900000   10.19100000   21.34500000 L
 C(PDBName=C,ResName=MOL,ResNum=1)                   0    0.86900000    5.00000000   16.08000000 L
 C(PDBName=C,ResName=MOL,ResNum=1)                   0    7.38700000   11.36100000   20.56500000 L
 C(PDBName=C,ResName=MOL,ResNum=1)                   0    1.04200000    6.33200000   15.70200000 L
 C(PDBName=C,ResName=MOL,ResNum=1)                   0    7.06100000   11.35600000   19.20700000 L
 H(PDBName=H,ResName=MOL,ResNum=1)                   0    1.45400000    7.03300000   16.41500000 L
 H(PDBName=H,ResName=MOL,ResNum=1)                   0    6.73600000   10.43600000   18.74000000 L
 C(PDBName=C,ResName=MOL,ResNum=1)                   0    0.64000000    6.75600000   14.44000000 L
 C(PDBName=C,ResName=MOL,ResNum=1)                   0    7.21600000   12.51100000   18.45100000 L
 C(PDBName=C,ResName=MOL,ResNum=1)                   0    0.07900000    5.82700000   13.55900000 L
 C(PDBName=C,ResName=MOL,ResNum=1)                   0    7.66900000   13.67900000   19.07100000 L
 H(PDBName=H,ResName=MOL,ResNum=1)                   0   -0.20300000    6.13100000   12.56300000 L
 H(PDBName=H,ResName=MOL,ResNum=1)                   0    7.77000000   14.58600000   18.49500000 L
 C(PDBName=C,ResName=MOL,ResNum=1)                   0   -0.09500000    4.50700000   13.93500000 L
 C(PDBName=C,ResName=MOL,ResNum=1)                   0    7.96900000   13.68900000   20.42100000 L
 H(PDBName=H,ResName=MOL,ResNum=1)                   0   -0.53500000    3.80600000   13.24400000 L
 H(PDBName=H,ResName=MOL,ResNum=1)                   0    8.31600000   14.59800000   20.88700000 L
 C(PDBName=C,ResName=MOL,ResNum=1)                   0    0.29000000    4.08700000   15.19300000 L
 C(PDBName=C,ResName=MOL,ResNum=1)                   0    7.84200000   12.53600000   21.17100000 L
 H(PDBName=H,ResName=MOL,ResNum=1)                   0    0.15400000    3.06100000   15.49700000 L
 H(PDBName=H,ResName=MOL,ResNum=1)                   0    8.09400000   12.53100000   22.22000000 L
 C(PDBName=C,ResName=MOL,ResNum=1)                   0    0.80700000    8.14500000   13.98600000 L
 C(PDBName=C,ResName=MOL,ResNum=1)                   0    6.96000000   12.52900000   17.00300000 L
 C(PDBName=C,ResName=MOL,ResNum=1)                   0    1.90200000    8.92200000   14.34700000 L
 C(PDBName=C,ResName=MOL,ResNum=1)                   0    5.84100000   11.94600000   16.42200000 L
 H(PDBName=H,ResName=MOL,ResNum=1)                   0    2.63800000    8.53500000   15.05100000 L
 H(PDBName=H,ResName=MOL,ResNum=1)                   0    5.10100000   11.44600000   17.04500000 L
 N(PDBName=N,ResName=MOL,ResNum=1)                   0    2.14000000   10.13700000   13.84000000 L
 N(PDBName=N,ResName=MOL,ResNum=1)                   0    5.59000000   11.98800000   15.10700000 L
 C(PDBName=C,ResName=MOL,ResNum=1)                   0    1.30000000   10.65900000   12.94000000 L
 C(PDBName=C,ResName=MOL,ResNum=1)                   0    6.45600000   12.59300000   14.28600000 L
 C(PDBName=C,ResName=MOL,ResNum=1)                   0    1.64000000   11.97200000   12.31900000 L
 C(PDBName=C,ResName=MOL,ResNum=1)                   0    6.19200000   12.62900000   12.81500000 L
 C(PDBName=C,ResName=MOL,ResNum=1)                   0    0.13600000    9.97800000   12.58600000 L
 C(PDBName=C,ResName=MOL,ResNum=1)                   0    7.61000000   13.19200000   14.79100000 L
 H(PDBName=H,ResName=MOL,ResNum=1)                   0   -0.55200000   10.43300000   11.89100000 L
 H(PDBName=H,ResName=MOL,ResNum=1)                   0    8.29500000   13.67200000   14.11000000 L
 C(PDBName=C,ResName=MOL,ResNum=1)                   0   -0.11500000    8.72800000   13.10600000 L
 C(PDBName=C,ResName=MOL,ResNum=1)                   0    7.86300000   13.17000000   16.14400000 L
 H(PDBName=H,ResName=MOL,ResNum=1)                   0   -1.01700000    8.20300000   12.83600000 L
 H(PDBName=H,ResName=MOL,ResNum=1)                   0    8.75600000   13.62700000   16.54000000 L
 N(PDBName=N,ResName=MOL,ResNum=1)                   0    4.90500000    9.61700000   13.57900000 L
 N(PDBName=N,ResName=MOL,ResNum=1)                   0    3.31600000    5.77900000   23.24900000 L
 C(PDBName=C,ResName=MOL,ResNum=1)                   0    5.48600000    8.76500000   14.42300000 L
 C(PDBName=C,ResName=MOL,ResNum=1)                   0    2.82000000    6.74300000   22.47700000 L
 H(PDBName=H,ResName=MOL,ResNum=1)                   0    5.41300000    8.98800000   15.48900000 L
 C(PDBName=C,ResName=MOL,ResNum=1)                   0    6.18200000    7.63200000   13.99400000 L
 C(PDBName=C,ResName=MOL,ResNum=1)                   0    1.74100000    7.54000000   22.86300000 L
 C(PDBName=C,ResName=MOL,ResNum=1)                   0    6.26600000    7.39900000   12.61400000 L
 C(PDBName=C,ResName=MOL,ResNum=1)                   0    1.17600000    7.30800000   24.12600000 L
 C(PDBName=C,ResName=MOL,ResNum=1)                   0    5.64700000    8.28300000   11.75100000 L
 C(PDBName=C,ResName=MOL,ResNum=1)                   0    1.70800000    6.30900000   24.92000000 L
 C(PDBName=C,ResName=MOL,ResNum=1)                   0    4.97000000    9.37900000   12.26800000 L
 C(PDBName=C,ResName=MOL,ResNum=1)                   0    2.77700000    5.55800000   24.45000000 L
 H(PDBName=H,ResName=MOL,ResNum=1)                   0    4.46900000   10.07700000   11.60700000 L
 H(PDBName=H,ResName=MOL,ResNum=1)                   0    3.21500000    4.76300000   25.04800000 L
 C(PDBName=C,ResName=MOL,ResNum=1)                   0    6.79800000    6.75900000   14.91200000 L
 C(PDBName=C,ResName=MOL,ResNum=1)                   0    1.24800000    8.52600000   21.98800000 L
 C(PDBName=C,ResName=MOL,ResNum=1)                   0    7.35900000    5.98400000   15.65200000 L
 C(PDBName=C,ResName=MOL,ResNum=1)                   0    0.83700000    9.35600000   21.21000000 L
 C(PDBName=C,ResName=MOL,ResNum=1)                   0    8.08200000    5.11000000   16.49300000 L
 C(PDBName=C,ResName=MOL,ResNum=1)                   0    0.27800000   10.32800000   20.35500000 L
 C(PDBName=C,ResName=MOL,ResNum=1)                   0    7.52100000    4.60600000   17.66600000 L
 C(PDBName=C,ResName=MOL,ResNum=1)                   0    1.02100000   10.88800000   19.31400000 L
 H(PDBName=H,ResName=MOL,ResNum=1)                   0    6.49300000    4.84600000   17.89700000 L
 H(PDBName=H,ResName=MOL,ResNum=1)                   0    2.05000000   10.58900000   19.17400000 L
 C(PDBName=C,ResName=MOL,ResNum=1)                   0    8.26000000    3.76700000   18.49500000 L
 C(PDBName=C,ResName=MOL,ResNum=1)                   0    0.45500000   11.86800000   18.50500000 L
 C(PDBName=C,ResName=MOL,ResNum=1)                   0    9.57100000    3.44400000   18.13400000 L
 C(PDBName=C,ResName=MOL,ResNum=1)                   0   -0.86700000   12.25900000   18.72900000 L
 H(PDBName=H,ResName=MOL,ResNum=1)                   0   10.17200000    2.82400000   18.77900000 L
 H(PDBName=H,ResName=MOL,ResNum=1)                   0   -1.32200000   13.00000000   18.09100000 L
 C(PDBName=C,ResName=MOL,ResNum=1)                   0   10.12200000    3.93300000   16.96300000 L
 C(PDBName=C,ResName=MOL,ResNum=1)                   0   -1.60800000   11.69000000   19.75000000 L
 H(PDBName=H,ResName=MOL,ResNum=1)                   0   11.13300000    3.66700000   16.69500000 L
 H(PDBName=H,ResName=MOL,ResNum=1)                   0   -2.62800000   12.00300000   19.91100000 L
 C(PDBName=C,ResName=MOL,ResNum=1)                   0    9.38800000    4.76200000   16.13700000 L
 C(PDBName=C,ResName=MOL,ResNum=1)                   0   -1.04200000   10.73500000   20.57100000 L
 H(PDBName=H,ResName=MOL,ResNum=1)                   0    9.81400000    5.14700000   15.22400000 L
 H(PDBName=H,ResName=MOL,ResNum=1)                   0   -1.60800000   10.30000000   21.38000000 L
 C(PDBName=C,ResName=MOL,ResNum=1)                   0    7.69800000    3.24200000   19.74700000 L
 C(PDBName=C,ResName=MOL,ResNum=1)                   0    1.22000000   12.53000000   17.43700000 L
 C(PDBName=C,ResName=MOL,ResNum=1)                   0    6.76800000    3.96400000   20.48500000 L
 C(PDBName=C,ResName=MOL,ResNum=1)                   0    2.05800000   11.84100000   16.57100000 L
 H(PDBName=H,ResName=MOL,ResNum=1)                   0    6.42500000    4.93800000   20.13900000 L
 H(PDBName=H,ResName=MOL,ResNum=1)                   0    2.18300000   10.76200000   16.67800000 L
 N(PDBName=N,ResName=MOL,ResNum=1)                   0    6.26800000    3.54100000   21.64900000 L
 N(PDBName=N,ResName=MOL,ResNum=1)                   0    2.72200000   12.42700000   15.56400000 L
 C(PDBName=C,ResName=MOL,ResNum=1)                   0    6.66900000    2.38100000   22.17700000 L
 C(PDBName=C,ResName=MOL,ResNum=1)                   0    2.60900000   13.74600000   15.38000000 L
 C(PDBName=C,ResName=MOL,ResNum=1)                   0    6.12400000    1.97600000   23.50900000 L
 C(PDBName=C,ResName=MOL,ResNum=1)                   0    3.35900000   14.40400000   14.27200000 L
 C(PDBName=C,ResName=MOL,ResNum=1)                   0    7.58300000    1.58300000   21.48800000 L
 C(PDBName=C,ResName=MOL,ResNum=1)                   0    1.80200000   14.51300000   16.22100000 L
 H(PDBName=H,ResName=MOL,ResNum=1)                   0    7.88700000    0.64000000   21.91300000 L
 H(PDBName=H,ResName=MOL,ResNum=1)                   0    1.73200000   15.57700000   16.05600000 L
 C(PDBName=C,ResName=MOL,ResNum=1)                   0    8.08700000    2.00200000   20.27600000 L
 C(PDBName=C,ResName=MOL,ResNum=1)                   0    1.10200000   13.91300000   17.24200000 L
 H(PDBName=H,ResName=MOL,ResNum=1)                   0    8.77200000    1.37000000   19.73300000 L
 H(PDBName=H,ResName=MOL,ResNum=1)                   0    0.48000000   14.50100000   17.89800000 L
 Pd(PDBName=Pd,ResName=MOL,ResNum=1)                 0    3.84500000   11.11200000   14.45000000 L
 Pd(PDBName=Pd,ResName=MOL,ResNum=1)                 0    4.80300000    4.64700000   22.49000000 L
 H(PDBName=H,ResName=MOL,ResNum=1)                   0    8.04500000    6.76700000   25.86900000 L
 H(PDBName=H,ResName=MOL,ResNum=1)                   0    8.37500000    8.81500000   24.49200000 L
 H(PDBName=H,ResName=MOL,ResNum=1)                   0    0.45900000    1.94600000   19.65300000 L
 H(PDBName=H,ResName=MOL,ResNum=1)                   0    1.17500000    1.06300000   21.86900000 L
 H(PDBName=H,ResName=MOL,ResNum=1)                   0    0.34200000    7.90300000   24.46300000 L
 H(PDBName=H,ResName=MOL,ResNum=1)                   0    1.29800000    6.10500000   25.89600000 L
 H(PDBName=H,ResName=MOL,ResNum=1)                   0    3.28400000    6.89800000   21.50400000 L
 H(PDBName=H,ResName=MOL,ResNum=1)                   0    5.68500000    8.13200000   10.68500000 L
 H(PDBName=H,ResName=MOL,ResNum=1)                   0    6.80400000    6.54000000   12.24400000 L
 H(PDBName=H,ResName=MOL,ResNum=1)                   0    6.94300000    1.82500000   24.21300000 L
 H(PDBName=H,ResName=MOL,ResNum=1)                   0    5.59800000    1.02500000   23.43000000 L
 H(PDBName=H,ResName=MOL,ResNum=1)                   0    5.43900000    2.74600000   23.91700000 L
 H(PDBName=H,ResName=MOL,ResNum=1)                   0    1.30200000   11.99900000   11.28500000 L
 H(PDBName=H,ResName=MOL,ResNum=1)                   0    2.72500000   12.14500000   12.34400000 L
 H(PDBName=H,ResName=MOL,ResNum=1)                   0    1.13300000   12.78300000   12.84500000 L
 H(PDBName=H,ResName=MOL,ResNum=1)                   0    3.84600000   13.66700000   13.63100000 L
 H(PDBName=H,ResName=MOL,ResNum=1)                   0    4.11500000   15.07400000   14.68400000 L
 H(PDBName=H,ResName=MOL,ResNum=1)                   0    2.68900000   15.01700000   13.67200000 L
 H(PDBName=H,ResName=MOL,ResNum=1)                   0    6.23300000   13.65600000   12.45200000 L
 H(PDBName=H,ResName=MOL,ResNum=1)                   0    5.21800000   12.19300000   12.56100000 L
 H(PDBName=H,ResName=MOL,ResNum=1)                   0    6.97200000   12.07800000   12.28800000 L


C H N 0
6-31G(d)
****
Pd 0
SDD
****

Pd 0
SDD



