%chk=6_C_dmso.chk
%mem=60000mb
%nprocshared=32

#P B3LYP/GenECP opt=(Tight,steep) SCF=(YQC,MaxCycle=900) int=(Grid=Ultrafine) EmpiricalDispersion=GD3 SCRF=(PCM,Solvent=DiMethylSulfoxide)

6_C_dmso

4 1
 N(PDBName=N,ResName=MOL,ResNum=1)                   0    2.42300000    9.88200000   13.80700000 L
 N(PDBName=N,ResName=MOL,ResNum=1)                   0    5.95000000    5.67800000   22.97900000 L
 C(PDBName=C,ResName=MOL,ResNum=1)                   0    2.20800000    8.85100000   14.62500000 L
 C(PDBName=C,ResName=MOL,ResNum=1)                   0    6.10000000    6.76900000   22.22800000 L
 H(PDBName=H,ResName=MOL,ResNum=1)                   0    2.61500000    8.92000000   15.63400000 L
 H(PDBName=H,ResName=MOL,ResNum=1)                   0    5.46000000    6.86900000   21.35000000 L
 C(PDBName=C,ResName=MOL,ResNum=1)                   0    1.49800000    7.71400000   14.23300000 L
 C(PDBName=C,ResName=MOL,ResNum=1)                   0    7.01800000    7.77600000   22.53200000 L
 C(PDBName=C,ResName=MOL,ResNum=1)                   0    0.96200000    7.69100000   12.93600000 L
 C(PDBName=C,ResName=MOL,ResNum=1)                   0    7.82700000    7.60100000   23.66400000 L
 C(PDBName=C,ResName=MOL,ResNum=1)                   0    1.17900000    8.77200000   12.10600000 L
 C(PDBName=C,ResName=MOL,ResNum=1)                   0    7.67100000    6.45700000   24.42400000 L
 C(PDBName=C,ResName=MOL,ResNum=1)                   0    1.92900000    9.84500000   12.56900000 L
 C(PDBName=C,ResName=MOL,ResNum=1)                   0    6.71600000    5.51800000   24.05800000 L
 H(PDBName=H,ResName=MOL,ResNum=1)                   0    2.13500000   10.69100000   11.92300000 L
 H(PDBName=H,ResName=MOL,ResNum=1)                   0    6.56500000    4.61800000   24.64500000 L
 C(PDBName=C,ResName=MOL,ResNum=1)                   0    1.35200000    6.60400000   15.08400000 L
 C(PDBName=C,ResName=MOL,ResNum=1)                   0    7.09100000    8.94400000   21.74800000 L
 C(PDBName=C,ResName=MOL,ResNum=1)                   0    1.22800000    5.59800000   15.74400000 L
 C(PDBName=C,ResName=MOL,ResNum=1)                   0    7.13100000    9.97000000   21.10900000 L
 C(PDBName=C,ResName=MOL,ResNum=1)                   0    1.06300000    4.38200000   16.43800000 L
 C(PDBName=C,ResName=MOL,ResNum=1)                   0    7.19500000   11.23300000   20.48100000 L
 C(PDBName=C,ResName=MOL,ResNum=1)                   0    1.37000000    4.26600000   17.79400000 L
 C(PDBName=C,ResName=MOL,ResNum=1)                   0    6.85200000   11.41200000   19.14000000 L
 H(PDBName=H,ResName=MOL,ResNum=1)                   0    1.71200000    5.13700000   18.33700000 L
 H(PDBName=H,ResName=MOL,ResNum=1)                   0    6.57900000   10.55100000   18.54500000 L
 C(PDBName=C,ResName=MOL,ResNum=1)                   0    1.18300000    3.05500000   18.45000000 L
 C(PDBName=C,ResName=MOL,ResNum=1)                   0    6.91600000   12.67800000   18.56600000 L
 C(PDBName=C,ResName=MOL,ResNum=1)                   0    0.70500000    1.95600000   17.73300000 L
 C(PDBName=C,ResName=MOL,ResNum=1)                   0    7.30900000   13.76200000   19.35500000 L
 H(PDBName=H,ResName=MOL,ResNum=1)                   0    0.58100000    1.00500000   18.22700000 L
 H(PDBName=H,ResName=MOL,ResNum=1)                   0    7.32900000   14.75500000   18.93400000 L
 C(PDBName=C,ResName=MOL,ResNum=1)                   0    0.41100000    2.06800000   16.38500000 L
 C(PDBName=C,ResName=MOL,ResNum=1)                   0    7.65100000   13.58400000   20.68400000 L
 H(PDBName=H,ResName=MOL,ResNum=1)                   0    0.04200000    1.21100000   15.84400000 L
 H(PDBName=H,ResName=MOL,ResNum=1)                   0    7.95900000   14.43000000   21.27700000 L
 C(PDBName=C,ResName=MOL,ResNum=1)                   0    0.58000000    3.27400000   15.73400000 L
 C(PDBName=C,ResName=MOL,ResNum=1)                   0    7.60500000   12.32600000   21.25100000 L
 H(PDBName=H,ResName=MOL,ResNum=1)                   0    0.34000000    3.37100000   14.68700000 L
 H(PDBName=H,ResName=MOL,ResNum=1)                   0    7.87700000   12.17800000   22.28400000 L
 C(PDBName=C,ResName=MOL,ResNum=1)                   0    1.45400000    2.91600000   19.88800000 L
 C(PDBName=C,ResName=MOL,ResNum=1)                   0    6.58400000   12.91300000   17.15200000 L
 C(PDBName=C,ResName=MOL,ResNum=1)                   0    2.55100000    3.51100000   20.49600000 L
 C(PDBName=C,ResName=MOL,ResNum=1)                   0    5.56600000   12.23000000   16.50100000 L
 H(PDBName=H,ResName=MOL,ResNum=1)                   0    3.26000000    4.08900000   19.90300000 L
 H(PDBName=H,ResName=MOL,ResNum=1)                   0    4.99700000   11.46700000   17.03200000 L
 N(PDBName=N,ResName=MOL,ResNum=1)                   0    2.81900000    3.39500000   21.80300000 L
 N(PDBName=N,ResName=MOL,ResNum=1)                   0    5.21300000   12.46500000   15.23100000 L
 C(PDBName=C,ResName=MOL,ResNum=1)                   0    2.00300000    2.68500000   22.58800000 L
 C(PDBName=C,ResName=MOL,ResNum=1)                   0    5.86400000   13.39100000   14.52200000 L
 C(PDBName=C,ResName=MOL,ResNum=1)                   0    2.29400000    2.59000000   24.05000000 L
 C(PDBName=C,ResName=MOL,ResNum=1)                   0    5.45600000   13.64800000   13.11000000 L
 C(PDBName=C,ResName=MOL,ResNum=1)                   0    0.88200000    2.05100000   22.05200000 L
 C(PDBName=C,ResName=MOL,ResNum=1)                   0    6.91400000   14.10900000   15.09500000 L
 H(PDBName=H,ResName=MOL,ResNum=1)                   0    0.23800000    1.48100000   22.70200000 L
 H(PDBName=H,ResName=MOL,ResNum=1)                   0    7.43600000   14.84400000   14.50400000 L
 C(PDBName=C,ResName=MOL,ResNum=1)                   0    0.60400000    2.16200000   20.70800000 L
 C(PDBName=C,ResName=MOL,ResNum=1)                   0    7.27800000   13.87300000   16.40200000 L
 H(PDBName=H,ResName=MOL,ResNum=1)                   0   -0.27200000    1.69000000   20.29300000 L
 H(PDBName=H,ResName=MOL,ResNum=1)                   0    8.10400000   14.41100000   16.83800000 L
 N(PDBName=N,ResName=MOL,ResNum=1)                   0    5.19200000   10.01400000   13.73500000 L
 N(PDBName=N,ResName=MOL,ResNum=1)                   0    3.18600000    5.85200000   23.28500000 L
 C(PDBName=C,ResName=MOL,ResNum=1)                   0    5.63400000    9.06800000   14.56300000 L
 C(PDBName=C,ResName=MOL,ResNum=1)                   0    2.71400000    6.78900000   22.46200000 L
 H(PDBName=H,ResName=MOL,ResNum=1)                   0    5.29900000    9.11500000   15.60000000 L
 C(PDBName=C,ResName=MOL,ResNum=1)                   0    6.49700000    8.05000000   14.15200000 L
 C(PDBName=C,ResName=MOL,ResNum=1)                   0    2.04400000    7.92500000   22.92100000 L
 C(PDBName=C,ResName=MOL,ResNum=1)                   0    6.92100000    8.05000000   12.81500000 L
 C(PDBName=C,ResName=MOL,ResNum=1)                   0    1.82600000    8.04400000   24.30300000 L
 C(PDBName=C,ResName=MOL,ResNum=1)                   0    6.45600000    9.03800000   11.96900000 L
 C(PDBName=C,ResName=MOL,ResNum=1)                   0    2.31000000    7.06000000   25.14100000 L
 C(PDBName=C,ResName=MOL,ResNum=1)                   0    5.58400000    9.99900000   12.46000000 L
 C(PDBName=C,ResName=MOL,ResNum=1)                   0    3.00400000    5.98600000   24.59900000 L
 H(PDBName=H,ResName=MOL,ResNum=1)                   0    5.19300000   10.77400000   11.80900000 L
 H(PDBName=H,ResName=MOL,ResNum=1)                   0    3.42400000    5.22100000   25.24300000 L
 C(PDBName=C,ResName=MOL,ResNum=1)                   0    6.93500000    7.05400000   15.04500000 L
 C(PDBName=C,ResName=MOL,ResNum=1)                   0    1.63300000    8.95300000   22.05300000 L
 C(PDBName=C,ResName=MOL,ResNum=1)                   0    7.34200000    6.17100000   15.76400000 L
 C(PDBName=C,ResName=MOL,ResNum=1)                   0    1.30100000    9.90700000   21.38600000 L
 C(PDBName=C,ResName=MOL,ResNum=1)                   0    7.91800000    5.16300000   16.56600000 L
 C(PDBName=C,ResName=MOL,ResNum=1)                   0    0.92500000   11.08900000   20.71500000 L
 C(PDBName=C,ResName=MOL,ResNum=1)                   0    7.22900000    4.59200000   17.63600000 L
 C(PDBName=C,ResName=MOL,ResNum=1)                   0    1.10600000   11.25200000   19.34200000 L
 H(PDBName=H,ResName=MOL,ResNum=1)                   0    6.20800000    4.89300000   17.82100000 L
 H(PDBName=H,ResName=MOL,ResNum=1)                   0    1.48300000   10.42300000   18.75900000 L
 C(PDBName=C,ResName=MOL,ResNum=1)                   0    7.83900000    3.61700000   18.42100000 L
 C(PDBName=C,ResName=MOL,ResNum=1)                   0    0.76700000   12.45500000   18.72900000 L
 C(PDBName=C,ResName=MOL,ResNum=1)                   0    9.14900000    3.23000000   18.12100000 L
 C(PDBName=C,ResName=MOL,ResNum=1)                   0    0.24600000   13.49000000   19.51100000 L
 H(PDBName=H,ResName=MOL,ResNum=1)                   0    9.65200000    2.50600000   18.74100000 L
 H(PDBName=H,ResName=MOL,ResNum=1)                   0    0.01100000   14.44000000   19.05900000 L
 C(PDBName=C,ResName=MOL,ResNum=1)                   0    9.82700000    3.78700000   17.05200000 L
 C(PDBName=C,ResName=MOL,ResNum=1)                   0    0.05100000   13.32300000   20.87000000 L
 H(PDBName=H,ResName=MOL,ResNum=1)                   0   10.83400000    3.47100000   16.83200000 L
 H(PDBName=H,ResName=MOL,ResNum=1)                   0   -0.36000000   14.12900000   21.45600000 L
 C(PDBName=C,ResName=MOL,ResNum=1)                   0    9.22100000    4.74900000   16.26800000 L
 C(PDBName=C,ResName=MOL,ResNum=1)                   0    0.38600000   12.13000000   21.47900000 L
 H(PDBName=H,ResName=MOL,ResNum=1)                   0    9.74300000    5.19000000   15.43400000 L
 H(PDBName=H,ResName=MOL,ResNum=1)                   0    0.23900000   11.99300000   22.53900000 L
 C(PDBName=C,ResName=MOL,ResNum=1)                   0    7.16700000    3.01300000   19.58000000 L
 C(PDBName=C,ResName=MOL,ResNum=1)                   0    0.96000000   12.67500000   17.28900000 L
 C(PDBName=C,ResName=MOL,ResNum=1)                   0    6.26100000    3.72200000   20.36100000 L
 C(PDBName=C,ResName=MOL,ResNum=1)                   0    2.01600000   12.10500000   16.58900000 L
 H(PDBName=H,ResName=MOL,ResNum=1)                   0    5.97200000    4.73500000   20.08000000 L
 H(PDBName=H,ResName=MOL,ResNum=1)                   0    2.71300000   11.44200000   17.10000000 L
 N(PDBName=N,ResName=MOL,ResNum=1)                   0    5.73500000    3.24400000   21.49300000 L
 N(PDBName=N,ResName=MOL,ResNum=1)                   0    2.25600000   12.33800000   15.29300000 L
 C(PDBName=C,ResName=MOL,ResNum=1)                   0    6.08200000    2.03000000   21.93100000 L
 C(PDBName=C,ResName=MOL,ResNum=1)                   0    1.45200000   13.15400000   14.60500000 L
 C(PDBName=C,ResName=MOL,ResNum=1)                   0    5.56000000    1.57700000   23.25300000 L
 C(PDBName=C,ResName=MOL,ResNum=1)                   0    1.74500000   13.42800000   13.16800000 L
 C(PDBName=C,ResName=MOL,ResNum=1)                   0    6.92200000    1.22200000   21.16500000 L
 C(PDBName=C,ResName=MOL,ResNum=1)                   0    0.35000000   13.74400000   15.22700000 L
 H(PDBName=H,ResName=MOL,ResNum=1)                   0    7.15800000    0.22800000   21.50800000 L
 H(PDBName=H,ResName=MOL,ResNum=1)                   0   -0.29800000   14.38600000   14.65100000 L
 C(PDBName=C,ResName=MOL,ResNum=1)                   0    7.45700000    1.70400000   19.99100000 L
 C(PDBName=C,ResName=MOL,ResNum=1)                   0    0.09800000   13.50500000   16.55800000 L
 H(PDBName=H,ResName=MOL,ResNum=1)                   0    8.09900000    1.07500000   19.39500000 L
 H(PDBName=H,ResName=MOL,ResNum=1)                   0   -0.76800000   13.94200000   17.03000000 L
 Pd(PDBName=Pd,ResName=MOL,ResNum=1)                 0    3.76400000   11.25200000   14.45900000 L
 Pd(PDBName=Pd,ResName=MOL,ResNum=1)                 0    4.41900000    4.46700000   22.45700000 L
 H(PDBName=H,ResName=MOL,ResNum=1)                   0    8.27700000    6.29000000   25.30000000 L
 H(PDBName=H,ResName=MOL,ResNum=1)                   0    8.55200000    8.35300000   23.93100000 L
 H(PDBName=H,ResName=MOL,ResNum=1)                   0    0.39700000    6.83400000   12.60200000 L
 H(PDBName=H,ResName=MOL,ResNum=1)                   0    0.78300000    8.78800000   11.10300000 L
 H(PDBName=H,ResName=MOL,ResNum=1)                   0    1.29600000    8.89800000   24.69200000 L
 H(PDBName=H,ResName=MOL,ResNum=1)                   0    2.16600000    7.12100000   26.20800000 L
 H(PDBName=H,ResName=MOL,ResNum=1)                   0    2.86900000    6.63900000   21.39300000 L
 H(PDBName=H,ResName=MOL,ResNum=1)                   0    6.75900000    9.06600000   10.93500000 L
 H(PDBName=H,ResName=MOL,ResNum=1)                   0    7.59400000    7.28400000   12.46400000 L
 H(PDBName=H,ResName=MOL,ResNum=1)                   0    3.23400000    3.09700000   24.30300000 L
 H(PDBName=H,ResName=MOL,ResNum=1)                   0    2.35300000    1.54700000   24.35700000 L
 H(PDBName=H,ResName=MOL,ResNum=1)                   0    1.47900000    3.03800000   24.61800000 L
 H(PDBName=H,ResName=MOL,ResNum=1)                   0    6.30100000    0.96600000   23.76200000 L
 H(PDBName=H,ResName=MOL,ResNum=1)                   0    4.67000000    0.96000000   23.11700000 L
 H(PDBName=H,ResName=MOL,ResNum=1)                   0    5.31500000    2.44200000   23.88600000 L
 H(PDBName=H,ResName=MOL,ResNum=1)                   0    6.32800000   13.64800000   12.45900000 L
 H(PDBName=H,ResName=MOL,ResNum=1)                   0    4.99900000   14.63500000   13.03000000 L
 H(PDBName=H,ResName=MOL,ResNum=1)                   0    4.74100000   12.89100000   12.76000000 L
 H(PDBName=H,ResName=MOL,ResNum=1)                   0    0.85800000   13.24900000   12.56100000 L
 H(PDBName=H,ResName=MOL,ResNum=1)                   0    2.57100000   12.80000000   12.80600000 L
 H(PDBName=H,ResName=MOL,ResNum=1)                   0    2.01100000   14.47700000   13.03900000 L


C H N 0
6-31G(d)
****
Pd 0
SDD
****

Pd 0
SDD




