%chk=6_D_dmso.chk
%mem=60000mb
%nprocshared=32

#P B3LYP/GenECP opt=(Tight,steep) SCF=(YQC,MaxCycle=1800) int=(Grid=Ultrafine) EmpiricalDispersion=GD3 SCRF=(PCM,Solvent=DiMethylSulfoxide)

6_D_dmso

4 1
 N(PDBName=N,ResName=MOL,ResNum=1)                   0    2.74200000    3.65500000   21.64200000 L
 N(PDBName=N,ResName=MOL,ResNum=1)                   0    5.67900000    5.78200000   23.31900000 L
 C(PDBName=C,ResName=MOL,ResNum=1)                   0    2.51900000    4.12300000   20.41500000 L
 C(PDBName=C,ResName=MOL,ResNum=1)                   0    5.92100000    6.81700000   22.51400000 L
 H(PDBName=H,ResName=MOL,ResNum=1)                   0    3.14100000    4.95300000   20.07300000 L
 H(PDBName=H,ResName=MOL,ResNum=1)                   0    5.26500000    6.95200000   21.65000000 L
 C(PDBName=C,ResName=MOL,ResNum=1)                   0    1.54800000    3.58600000   19.56800000 L
 C(PDBName=C,ResName=MOL,ResNum=1)                   0    6.96600000    7.71700000   22.72700000 L
 C(PDBName=C,ResName=MOL,ResNum=1)                   0    0.77200000    2.52200000   20.05200000 L
 C(PDBName=C,ResName=MOL,ResNum=1)                   0    7.76800000    7.52500000   23.86200000 L
 C(PDBName=C,ResName=MOL,ResNum=1)                   0    1.00500000    2.05700000   21.33100000 L
 C(PDBName=C,ResName=MOL,ResNum=1)                   0    7.49400000    6.45900000   24.69600000 L
 C(PDBName=C,ResName=MOL,ResNum=1)                   0    2.00300000    2.64400000   22.09800000 L
 C(PDBName=C,ResName=MOL,ResNum=1)                   0    6.44700000    5.59800000   24.39000000 L
 H(PDBName=H,ResName=MOL,ResNum=1)                   0    2.21100000    2.29100000   23.10100000 L
 H(PDBName=H,ResName=MOL,ResNum=1)                   0    6.22600000    4.74500000   25.02100000 L
 C(PDBName=C,ResName=MOL,ResNum=1)                   0    1.38100000    4.06800000   18.25600000 L
 C(PDBName=C,ResName=MOL,ResNum=1)                   0    7.20900000    8.75300000   21.80400000 L
 C(PDBName=C,ResName=MOL,ResNum=1)                   0    1.24100000    4.42800000   17.11000000 L
 C(PDBName=C,ResName=MOL,ResNum=1)                   0    7.42100000    9.61000000   20.97700000 L
 C(PDBName=C,ResName=MOL,ResNum=1)                   0    1.09500000    4.72400000   15.73800000 L
 C(PDBName=C,ResName=MOL,ResNum=1)                   0    7.81300000   10.61200000   20.06500000 L
 C(PDBName=C,ResName=MOL,ResNum=1)                   0    1.27700000    6.01300000   15.23800000 L
 C(PDBName=C,ResName=MOL,ResNum=1)                   0    6.96300000   11.07600000   19.05900000 L
 H(PDBName=H,ResName=MOL,ResNum=1)                   0    1.47200000    6.82200000   15.92700000 L
 H(PDBName=H,ResName=MOL,ResNum=1)                   0    5.95500000   10.69000000   18.99600000 L
 C(PDBName=C,ResName=MOL,ResNum=1)                   0    1.15900000    6.25400000   13.87200000 L
 C(PDBName=C,ResName=MOL,ResNum=1)                   0    7.39800000   12.06300000   18.18100000 L
 C(PDBName=C,ResName=MOL,ResNum=1)                   0    0.87100000    5.18500000   13.01800000 L
 C(PDBName=C,ResName=MOL,ResNum=1)                   0    8.69800000   12.56300000   18.30900000 L
 H(PDBName=H,ResName=MOL,ResNum=1)                   0    0.81900000    5.34400000   11.95300000 L
 H(PDBName=H,ResName=MOL,ResNum=1)                   0    9.05900000   13.30300000   17.61300000 L
 C(PDBName=C,ResName=MOL,ResNum=1)                   0    0.67800000    3.90900000   13.51700000 L
 C(PDBName=C,ResName=MOL,ResNum=1)                   0    9.54100000   12.10200000   19.30400000 L
 H(PDBName=H,ResName=MOL,ResNum=1)                   0    0.44600000    3.09900000   12.84400000 L
 H(PDBName=H,ResName=MOL,ResNum=1)                   0   10.53800000   12.50300000   19.39100000 L
 C(PDBName=C,ResName=MOL,ResNum=1)                   0    0.78100000    3.67100000   14.87300000 L
 C(PDBName=C,ResName=MOL,ResNum=1)                   0    9.10500000   11.13500000   20.18800000 L
 H(PDBName=H,ResName=MOL,ResNum=1)                   0    0.63100000    2.68000000   15.27100000 L
 H(PDBName=H,ResName=MOL,ResNum=1)                   0    9.75100000   10.77600000   20.97400000 L
 C(PDBName=C,ResName=MOL,ResNum=1)                   0    1.35100000    7.59100000   13.29300000 L
 C(PDBName=C,ResName=MOL,ResNum=1)                   0    6.54700000   12.60900000   17.11200000 L
 C(PDBName=C,ResName=MOL,ResNum=1)                   0    2.24600000    8.51400000   13.82300000 L
 C(PDBName=C,ResName=MOL,ResNum=1)                   0    5.68500000   11.82500000   16.35600000 L
 H(PDBName=H,ResName=MOL,ResNum=1)                   0    2.79400000    8.28400000   14.73500000 L
 H(PDBName=H,ResName=MOL,ResNum=1)                   0    5.57100000   10.76900000   16.58800000 L
 N(PDBName=N,ResName=MOL,ResNum=1)                   0    2.51000000    9.69400000   13.25200000 L
 N(PDBName=N,ResName=MOL,ResNum=1)                   0    4.99200000   12.29100000   15.30800000 L
 C(PDBName=C,ResName=MOL,ResNum=1)                   0    1.90600000   10.02800000   12.10600000 L
 C(PDBName=C,ResName=MOL,ResNum=1)                   0    5.11100000   13.57600000   14.95700000 L
 C(PDBName=C,ResName=MOL,ResNum=1)                   0    2.28300000   11.30100000   11.42300000 L
 C(PDBName=C,ResName=MOL,ResNum=1)                   0    4.39100000   14.07800000   13.75000000 L
 C(PDBName=C,ResName=MOL,ResNum=1)                   0    0.94500000    9.18700000   11.54500000 L
 C(PDBName=C,ResName=MOL,ResNum=1)                   0    5.90600000   14.44500000   15.70500000 L
 H(PDBName=H,ResName=MOL,ResNum=1)                   0    0.44100000    9.49100000   10.64200000 L
 H(PDBName=H,ResName=MOL,ResNum=1)                   0    5.96000000   15.48400000   15.42300000 L
 C(PDBName=C,ResName=MOL,ResNum=1)                   0    0.65800000    7.97900000   12.13800000 L
 C(PDBName=C,ResName=MOL,ResNum=1)                   0    6.62200000   13.96900000   16.77900000 L
 H(PDBName=H,ResName=MOL,ResNum=1)                   0   -0.09900000    7.33800000   11.71500000 L
 H(PDBName=H,ResName=MOL,ResNum=1)                   0    7.23300000   14.63900000   17.36300000 L
 N(PDBName=N,ResName=MOL,ResNum=1)                   0    5.36600000   10.05800000   13.53400000 L
 N(PDBName=N,ResName=MOL,ResNum=1)                   0    2.15500000   11.74200000   15.21300000 L
 C(PDBName=C,ResName=MOL,ResNum=1)                   0    5.75600000    9.06900000   14.33900000 L
 C(PDBName=C,ResName=MOL,ResNum=1)                   0    2.00300000   11.24600000   16.44000000 L
 H(PDBName=H,ResName=MOL,ResNum=1)                   0    5.12700000    8.84200000   15.20300000 L
 C(PDBName=C,ResName=MOL,ResNum=1)                   0    6.91900000    8.32900000   14.12500000 L
 C(PDBName=C,ResName=MOL,ResNum=1)                   0    0.96600000   11.63900000   17.28800000 L
 C(PDBName=C,ResName=MOL,ResNum=1)                   0    7.68400000    8.63300000   12.98900000 L
 C(PDBName=C,ResName=MOL,ResNum=1)                   0    0.04600000   12.58100000   16.80600000 L
 C(PDBName=C,ResName=MOL,ResNum=1)                   0    7.25900000    9.64900000   12.15400000 L
 C(PDBName=C,ResName=MOL,ResNum=1)                   0    0.20900000   13.07500000   15.52700000 L
 C(PDBName=C,ResName=MOL,ResNum=1)                   0    6.09900000   10.35000000   12.46100000 L
 C(PDBName=C,ResName=MOL,ResNum=1)                   0    1.27900000   12.63600000   14.75800000 L
 H(PDBName=H,ResName=MOL,ResNum=1)                   0    5.75600000   11.16200000   11.83100000 L
 H(PDBName=H,ResName=MOL,ResNum=1)                   0    1.43400000   13.01600000   13.75500000 L
 C(PDBName=C,ResName=MOL,ResNum=1)                   0    7.31000000    7.34000000   15.04800000 L
 C(PDBName=C,ResName=MOL,ResNum=1)                   0    0.87100000   11.13700000   18.60000000 L
 C(PDBName=C,ResName=MOL,ResNum=1)                   0    7.64400000    6.52300000   15.87500000 L
 C(PDBName=C,ResName=MOL,ResNum=1)                   0    0.78400000   10.76000000   19.74600000 L
 C(PDBName=C,ResName=MOL,ResNum=1)                   0    8.17700000    5.58800000   16.78800000 L
 C(PDBName=C,ResName=MOL,ResNum=1)                   0    0.68300000   10.44700000   21.11800000 L
 C(PDBName=C,ResName=MOL,ResNum=1)                   0    7.40300000    5.00600000   17.79400000 L
 C(PDBName=C,ResName=MOL,ResNum=1)                   0    1.04900000    9.19800000   21.61800000 L
 H(PDBName=H,ResName=MOL,ResNum=1)                   0    6.35000000    5.24200000   17.85700000 L
 H(PDBName=H,ResName=MOL,ResNum=1)                   0    1.35800000    8.42400000   20.92900000 L
 C(PDBName=C,ResName=MOL,ResNum=1)                   0    7.97700000    4.09300000   18.67200000 L
 C(PDBName=C,ResName=MOL,ResNum=1)                   0    0.96800000    8.94200000   22.98400000 L
 C(PDBName=C,ResName=MOL,ResNum=1)                   0    9.33500000    3.78700000   18.54400000 L
 C(PDBName=C,ResName=MOL,ResNum=1)                   0    0.52800000    9.95800000   23.83800000 L
 H(PDBName=H,ResName=MOL,ResNum=1)                   0    9.80000000    3.10700000   19.24100000 L
 H(PDBName=H,ResName=MOL,ResNum=1)                   0    0.50000000    9.79300000   24.90300000 L
 C(PDBName=C,ResName=MOL,ResNum=1)                   0   10.10200000    4.36500000   17.54900000 L
 C(PDBName=C,ResName=MOL,ResNum=1)                   0    0.15300000   11.19300000   23.33900000 L
 H(PDBName=H,ResName=MOL,ResNum=1)                   0   11.14700000    4.11300000   17.46200000 L
 H(PDBName=H,ResName=MOL,ResNum=1)                   0   -0.19200000   11.96100000   24.01300000 L
 C(PDBName=C,ResName=MOL,ResNum=1)                   0    9.53100000    5.25800000   16.66400000 L
 C(PDBName=C,ResName=MOL,ResNum=1)                   0    0.22100000   11.44400000   21.98300000 L
 H(PDBName=H,ResName=MOL,ResNum=1)                   0   10.11900000    5.70600000   15.87900000 L
 H(PDBName=H,ResName=MOL,ResNum=1)                   0   -0.07100000   12.40300000   21.58500000 L
 C(PDBName=C,ResName=MOL,ResNum=1)                   0    7.21300000    3.42900000   19.74100000 L
 C(PDBName=C,ResName=MOL,ResNum=1)                   0    1.35000000    7.64700000   23.56200000 L
 C(PDBName=C,ResName=MOL,ResNum=1)                   0    6.24700000    4.08100000   20.49700000 L
 C(PDBName=C,ResName=MOL,ResNum=1)                   0    2.36800000    6.86200000   23.03200000 L
 H(PDBName=H,ResName=MOL,ResNum=1)                   0    5.98100000    5.10900000   20.26500000 L
 H(PDBName=H,ResName=MOL,ResNum=1)                   0    2.87600000    7.16800000   22.12000000 L
 N(PDBName=N,ResName=MOL,ResNum=1)                   0    5.62800000    3.52000000   21.54500000 L
 N(PDBName=N,ResName=MOL,ResNum=1)                   0    2.80000000    5.73200000   23.60300000 L
 C(PDBName=C,ResName=MOL,ResNum=1)                   0    5.93100000    2.26500000   21.89500000 L
 C(PDBName=C,ResName=MOL,ResNum=1)                   0    2.25100000    5.31500000   24.75000000 L
 C(PDBName=C,ResName=MOL,ResNum=1)                   0    5.29100000    1.66400000   23.10200000 L
 C(PDBName=C,ResName=MOL,ResNum=1)                   0    2.80800000    4.11000000   25.43300000 L
 C(PDBName=C,ResName=MOL,ResNum=1)                   0    6.84300000    1.52000000   21.14700000 L
 C(PDBName=C,ResName=MOL,ResNum=1)                   0    1.18000000    6.00900000   25.31100000 L
 H(PDBName=H,ResName=MOL,ResNum=1)                   0    7.04700000    0.50000000   21.42900000 L
 H(PDBName=H,ResName=MOL,ResNum=1)                   0    0.72500000    5.63600000   26.21500000 L
 C(PDBName=C,ResName=MOL,ResNum=1)                   0    7.48400000    2.09500000   20.07400000 L
 C(PDBName=C,ResName=MOL,ResNum=1)                   0    0.72100000    7.16300000   24.71900000 L
 H(PDBName=H,ResName=MOL,ResNum=1)                   0    8.18500000    1.52000000   19.49000000 L
 H(PDBName=H,ResName=MOL,ResNum=1)                   0   -0.12000000    7.68800000   25.14200000 L
 Pd(PDBName=Pd,ResName=MOL,ResNum=1)                 0    3.75000000   11.00000000   14.25000000 L
 Pd(PDBName=Pd,ResName=MOL,ResNum=1)                 0    4.21400000    4.61800000   22.60400000 L
 H(PDBName=H,ResName=MOL,ResNum=1)                   0    8.08900000    6.28400000   25.57800000 L
 H(PDBName=H,ResName=MOL,ResNum=1)                   0    8.58200000    8.20200000   24.06900000 L
 H(PDBName=H,ResName=MOL,ResNum=1)                   0    0.01100000    2.08200000   19.42600000 L
 H(PDBName=H,ResName=MOL,ResNum=1)                   0    0.42700000    1.24200000   21.73500000 L
 H(PDBName=H,ResName=MOL,ResNum=1)                   0   -0.77000000   12.90700000   17.43200000 L
 H(PDBName=H,ResName=MOL,ResNum=1)                   0   -0.48000000   13.79900000   15.12300000 L
 H(PDBName=H,ResName=MOL,ResNum=1)                   0    2.73800000   10.51300000   16.78100000 L
 H(PDBName=H,ResName=MOL,ResNum=1)                   0    7.82100000    9.90700000   11.27200000 L
 H(PDBName=H,ResName=MOL,ResNum=1)                   0    8.58600000    8.08000000   12.78100000 L
 H(PDBName=H,ResName=MOL,ResNum=1)                   0    2.52000000   11.10000000   10.37800000 L
 H(PDBName=H,ResName=MOL,ResNum=1)                   0    3.16100000   11.76000000   11.90000000 L
 H(PDBName=H,ResName=MOL,ResNum=1)                   0    1.44700000   12.00100000   11.42400000 L
 H(PDBName=H,ResName=MOL,ResNum=1)                   0    3.95600000   13.24800000   13.17500000 L
 H(PDBName=H,ResName=MOL,ResNum=1)                   0    5.07900000   14.62900000   13.11000000 L
 H(PDBName=H,ResName=MOL,ResNum=1)                   0    3.60300000   14.77300000   14.04200000 L
 H(PDBName=H,ResName=MOL,ResNum=1)                   0    3.74300000    3.78200000   24.95400000 L
 H(PDBName=H,ResName=MOL,ResNum=1)                   0    2.08200000    3.29700000   25.43200000 L
 H(PDBName=H,ResName=MOL,ResNum=1)                   0    3.01600000    4.34300000   26.47600000 L
 H(PDBName=H,ResName=MOL,ResNum=1)                   0    6.05100000    1.21600000   23.74100000 L
 H(PDBName=H,ResName=MOL,ResNum=1)                   0    4.61000000    0.86400000   22.80900000 L
 H(PDBName=H,ResName=MOL,ResNum=1)                   0    4.74100000    2.42300000   23.67800000 L


C H N 0
6-31G(d)
****
Pd 0
SDD
****

Pd 0
SDD




