%chk=m2_lb_FINAL.chk
%nprocshared=48
%mem=120GB
# SP PBE1PBE/def2svp empiricaldispersion=GD3BJ scrf=(solvent=dmso)

m2_lb

4 1
 Pd                 9.17350000   -0.54040000    1.01290000
 Pd                -9.14080000   -1.33320000    0.28950000
 C                 11.48820000   -2.84500000   -1.73530000
 C                 11.08460000   -1.90770000   -0.82060000
 N                  9.76870000   -1.73670000   -0.51310000
 C                  8.84870000   -2.47580000   -1.10510000
 C                  9.16150000   -3.48880000   -2.03360000
 C                  8.14430000   -4.29660000   -2.63350000
 C                  6.73210000   -4.04150000   -2.26480000
 C                  6.28350000   -4.22730000   -0.94800000
 C                  5.03290000   -3.76990000   -0.55140000
 C                  4.20290000   -3.10600000   -1.47140000
 C                  3.01180000   -2.43290000   -1.07770000
 C                  2.05490000   -1.71870000   -0.83850000
 C                  1.03460000   -0.72760000   -0.69700000
 N                  0.12040000   -0.85890000    0.27080000
 C                 -0.81030000    0.09660000    0.38820000
 C                 -1.79010000   -0.01000000    1.42370000
 C                 -2.69380000    0.03950000    2.23770000
 C                 -3.82720000    0.22570000    3.07860000
 C                 -4.16400000    1.52850000    3.48950000
 C                 -5.37050000    1.77090000    4.13390000
 C                 -6.27160000    0.72560000    4.37650000
 C                 -7.64470000    1.02220000    4.84420000
 C                 -7.90070000    1.66910000    6.03620000
 C                 -9.22410000    1.95120000    6.44660000
 C                -10.30390000    1.59350000    5.67170000
 C                -10.09140000    0.94790000    4.43050000
 C                -11.14590000    0.56210000    3.56480000
 C                -10.86950000   -0.04940000    2.37010000
 N                 -9.58850000   -0.28460000    1.97330000
 C                 -8.57920000    0.07690000    2.74560000
 C                 -8.75570000    0.67350000    4.01040000
 C                 -5.88530000   -0.58670000    4.06030000
 C                 -4.67890000   -0.83850000    3.42110000
 C                 -0.86920000    1.21420000   -0.46020000
 C                  0.08950000    1.34800000   -1.45620000
 C                  1.05980000    0.36400000   -1.58250000
 C                  4.61450000   -3.00520000   -2.81340000
 C                  5.86290000   -3.47050000   -3.20250000
 C                  8.52200000   -5.23430000   -3.57180000
 C                  9.88250000   -5.41710000   -3.91400000
 C                 10.87480000   -4.66350000   -3.32940000
 C                 10.53360000   -3.67590000   -2.37480000
 H                 12.54960000   -2.95190000   -1.96460000
 H                 11.79500000   -1.26290000   -0.30150000
 H                  7.81120000   -2.27850000   -0.83260000
 H                  6.94120000   -4.70190000   -0.21520000
 H                  4.71280000   -3.88400000    0.48560000
 H                 -3.49040000    2.35300000    3.24690000
 H                 -5.64900000    2.79380000    4.39860000
 H                 -7.06690000    1.95040000    6.68290000
 H                 -9.38530000    2.45390000    7.40260000
 H                -11.32410000    1.80430000    5.99820000
 H                -12.18310000    0.74750000    3.84810000
 H                -11.65860000   -0.36870000    1.68800000
 H                 -7.57570000   -0.11120000    2.36200000
 H                 -6.55550000   -1.41900000    4.28920000
 H                 -4.41150000   -1.85870000    3.14260000
 H                 -1.64880000    1.96290000   -0.32050000
 H                  0.07380000    2.23240000   -2.10010000
 H                  1.82690000    0.41150000   -2.35420000
 H                  3.96480000   -2.50620000   -3.53380000
 H                  6.19560000   -3.33610000   -4.23440000
 H                  7.75970000   -5.85460000   -4.04790000
 H                 10.14380000   -6.17720000   -4.65350000
 H                 11.92340000   -4.81350000   -3.59420000
 C                  8.90670000   -4.42370000    2.77250000
 C                  9.35810000   -3.26750000    2.19600000
 N                  8.53240000   -2.20160000    2.00010000
 C                  7.27510000   -2.25300000    2.40600000
 C                  6.72380000   -3.37840000    3.05420000
 C                  5.36360000   -3.41460000    3.50170000
 C                  4.48570000   -2.22590000    3.41920000
 C                  4.86220000   -0.99550000    3.98440000
 C                  4.03720000    0.11670000    3.88030000
 C                  2.80790000    0.02960000    3.19860000
 C                  2.01190000    1.19080000    2.98200000
 C                  1.37420000    2.19330000    2.71280000
 C                  0.72920000    3.40150000    2.29590000
 N                 -0.53930000    3.32220000    1.87910000
 C                 -1.11730000    4.42280000    1.38630000
 C                 -2.47030000    4.29940000    0.92670000
 C                 -3.61590000    4.20760000    0.52290000
 C                 -4.94730000    4.10150000    0.02310000
 C                 -5.26610000    4.60280000   -1.25070000
 C                 -6.54750000    4.45970000   -1.76250000
 C                 -7.56070000    3.83150000   -1.02040000
 C                 -8.91250000    3.69290000   -1.60650000
 C                 -9.48900000    4.76950000   -2.25840000
 C                -10.77530000    4.69290000   -2.83290000
 C                -11.51390000    3.53550000   -2.75880000
 C                -10.97090000    2.40200000   -2.11020000
 C                -11.68150000    1.18090000   -2.00200000
 C                -11.11840000    0.11150000   -1.36030000
 N                 -9.86420000    0.18440000   -0.83720000
 C                 -9.15640000    1.29540000   -0.94390000
 C                 -9.66030000    2.47040000   -1.54240000
 C                 -7.25080000    3.38120000    0.27380000
 C                 -5.96430000    3.49830000    0.78330000
 C                 -0.45280000    5.65790000    1.29510000
 C                  0.85270000    5.74080000    1.76550000
 C                  1.45950000    4.60290000    2.28210000
 C                  2.40940000   -1.21100000    2.67000000
 C                  3.23890000   -2.31840000    2.78450000
 C                  4.87920000   -4.60510000    4.01200000
 C                  5.70220000   -5.74560000    4.13820000
 C                  7.02480000   -5.71060000    3.76130000
 C                  7.56110000   -4.52570000    3.20580000
 H                  9.58600000   -5.26910000    2.89170000
 H                 10.38810000   -3.15520000    1.85560000
 H                  6.65310000   -1.38060000    2.20020000
 H                  5.80790000   -0.91070000    4.52540000
 H                  4.34480000    1.06760000    4.32020000
 H                 -4.49160000    5.08570000   -1.84600000
 H                 -6.76380000    4.82400000   -2.76930000
 H                 -8.94470000    5.71470000   -2.30700000
 H                -11.18790000    5.57400000   -3.32890000
 H                -12.51480000    3.47610000   -3.19040000
 H                -12.68330000    1.09200000   -2.42490000
 H                -11.64010000   -0.83950000   -1.24640000
 H                 -8.14540000    1.27300000   -0.53570000
 H                 -8.02920000    2.94960000    0.90630000
 H                 -5.74200000    3.12360000    1.78280000
 H                 -0.96080000    6.52230000    0.86570000
 H                  1.39980000    6.68450000    1.71700000
 H                  2.48760000    4.61990000    2.64490000
 H                  1.46290000   -1.28790000    2.12940000
 H                  2.92710000   -3.26740000    2.34250000
 H                  3.84340000   -4.65420000    4.35420000
 H                  5.27940000   -6.66020000    4.55930000
 H                  7.66740000   -6.58540000    3.87740000
 C                  8.69820000    1.04520000    4.91500000
 C                  9.09420000    0.34490000    3.80940000
 N                  8.56560000    0.59970000    2.57950000
 C                  7.64200000    1.53380000    2.43090000
 C                  7.14540000    2.29490000    3.51010000
 C                  6.14210000    3.30190000    3.34560000
 C                  5.44740000    3.57480000    2.06570000
 C                  5.32880000    4.90130000    1.61950000
 C                  4.49920000    5.22420000    0.55630000
 C                  3.74540000    4.22330000   -0.08350000
 C                  2.71620000    4.59140000   -0.99430000
 C                  1.74140000    4.94710000   -1.63260000
 C                  0.50950000    5.35230000   -2.23620000
 N                 -0.36620000    4.38040000   -2.50770000
 C                 -1.57460000    4.70550000   -2.97910000
 C                 -2.47010000    3.61160000   -3.19670000
 C                 -3.18940000    2.63750000   -3.32390000
 C                 -3.94790000    1.44300000   -3.47790000
 C                 -3.27190000    0.21110000   -3.54530000
 C                 -3.98290000   -0.96410000   -3.72860000
 C                 -5.38150000   -0.96010000   -3.82820000
 C                 -6.07840000   -2.24470000   -4.06190000
 C                 -5.64440000   -3.07570000   -5.08010000
 C                 -6.26630000   -4.31460000   -5.34500000
 C                 -7.33430000   -4.74360000   -4.59200000
 C                 -7.80170000   -3.94260000   -3.52440000
 C                 -8.87540000   -4.34090000   -2.69030000
 C                 -9.25610000   -3.55380000   -1.63810000
 N                 -8.61500000   -2.38530000   -1.35880000
 C                 -7.62130000   -1.96870000   -2.12410000
 C                 -7.16850000   -2.69150000   -3.24860000
 C                 -6.05600000    0.26870000   -3.74730000
 C                 -5.35090000    1.45500000   -3.57980000
 C                 -1.95390000    6.03540000   -3.22680000
 C                 -1.03130000    7.04300000   -2.96350000
 C                  0.22060000    6.71010000   -2.45810000
 C                  3.92720000    2.88370000    0.30180000
 C                  4.77280000    2.56730000    1.35800000
 C                  5.77580000    4.03940000    4.45890000
 C                  6.33910000    3.80240000    5.73070000
 C                  7.28300000    2.81910000    5.91020000
 C                  7.70930000    2.05260000    4.80130000
 H                  9.15000000    0.82800000    5.88390000
 H                  9.84820000   -0.44070000    3.86270000
 H                  7.26890000    1.70960000    1.42080000
 H                  5.87590000    5.69270000    2.13600000
 H                  4.38600000    6.26430000    0.24550000
 H                 -2.18420000    0.18470000   -3.45340000
 H                 -3.44250000   -1.90920000   -3.77900000
 H                 -4.81200000   -2.75390000   -5.70960000
 H                 -5.89490000   -4.93010000   -6.16700000
 H                 -7.82410000   -5.69670000   -4.79930000
 H                 -9.39500000   -5.28170000   -2.87810000
 H                -10.07290000   -3.83080000   -0.97100000
 H                 -7.13430000   -1.03490000   -1.83800000
 H                 -7.14300000    0.30680000   -3.85160000
 H                 -5.88610000    2.40410000   -3.53310000
 H                 -2.94640000    6.26160000   -3.61930000
 H                 -1.29080000    8.08780000   -3.14620000
 H                  0.96330000    7.47400000   -2.22570000
 H                  3.35280000    2.09720000   -0.19120000
 H                  4.84180000    1.52800000    1.68580000
 H                  5.00460000    4.80550000    4.35620000
 H                  6.00500000    4.40280000    6.57940000
 H                  7.71370000    2.62140000    6.89350000
 C                 11.03520000    3.08530000   -0.20760000
 C                 10.78290000    1.86160000    0.35190000
 N                  9.68230000    1.13910000    0.00490000
 C                  8.84810000    1.59240000   -0.91460000
 C                  9.02450000    2.83290000   -1.56160000
 C                  8.09010000    3.32970000   -2.52530000
 C                  6.94480000    2.51500000   -2.99030000
 C                  7.13770000    1.23660000   -3.53790000
 C                  6.06190000    0.49270000   -4.00430000
 C                  4.75590000    1.00870000   -3.92960000
 C                  3.64580000    0.24320000   -4.39530000
 C                  2.68990000   -0.41550000   -4.76270000
 C                  1.54390000   -1.20560000   -5.11350000
 N                  0.80970000   -1.65600000   -4.09210000
 C                 -0.27620000   -2.38930000   -4.35710000
 C                 -1.05400000   -2.82570000   -3.23790000
 C                 -1.76360000   -3.15060000   -2.30260000
 C                 -2.61870000   -3.48710000   -1.21550000
 C                 -3.90660000   -4.00700000   -1.44640000
 C                 -4.73990000   -4.31740000   -0.37980000
 C                 -4.31230000   -4.12700000    0.94530000
 C                 -5.15290000   -4.52380000    2.09630000
 C                 -4.61530000   -5.33250000    3.08240000
 C                 -5.38620000   -5.78850000    4.17280000
 C                 -6.71370000   -5.44880000    4.28880000
 C                 -7.30330000   -4.60020000    3.32360000
 C                 -8.65720000   -4.19090000    3.39900000
 C                 -9.16260000   -3.31880000    2.47500000
 N                 -8.38560000   -2.80400000    1.48050000
 C                 -7.12530000   -3.18500000    1.35880000
 C                 -6.51860000   -4.11390000    2.23280000
 C                 -3.02690000   -3.61000000    1.16740000
 C                 -2.19070000   -3.28690000    0.10880000
 C                 -0.67360000   -2.70890000   -5.66800000
 C                  0.09860000   -2.24030000   -6.72450000
 C                  1.22870000   -1.47490000   -6.45520000
 C                  4.55900000    2.28740000   -3.37910000
 C                  5.64180000    3.02820000   -2.92280000
 C                  8.28060000    4.60790000   -3.01640000
 C                  9.38580000    5.39410000   -2.62250000
 C                 10.31480000    4.91470000   -1.72840000
 C                 10.14610000    3.62600000   -1.16990000
 H                 11.91340000    3.65190000    0.10560000
 H                 11.43300000    1.42290000    1.11010000
 H                  7.97860000    0.97170000   -1.13960000
 H                  8.14710000    0.82740000   -3.62410000
 H                  6.22760000   -0.49590000   -4.43540000
 H                 -4.24780000   -4.17580000   -2.46980000
 H                 -5.72410000   -4.74750000   -0.58140000
 H                 -3.57590000   -5.65520000    2.99510000
 H                 -4.92010000   -6.43560000    4.91870000
 H                 -7.32040000   -5.81720000    5.11800000
 H                 -9.29820000   -4.56160000    4.20030000
 H                -10.19930000   -2.98370000    2.50960000
 H                 -6.54400000   -2.72590000    0.55750000
 H                 -2.68020000   -3.44310000    2.18970000
 H                 -1.20640000   -2.85260000    0.29810000
 H                 -1.56880000   -3.30870000   -5.83890000
 H                 -0.18020000   -2.46880000   -7.75520000
 H                  1.85850000   -1.08620000   -7.25630000
 H                  3.54930000    2.69710000   -3.30610000
 H                  5.47370000    4.01600000   -2.48860000
 H                  7.57550000    5.00740000   -3.74840000
 H                  9.50440000    6.39240000   -3.04900000
 H                 11.17600000    5.51740000   -1.43370000

 1 5 1.0 70 1.0 135 1.0 200 1.0
 2 31 1.0 96 1.0 161 1.0 226 1.0
 3 4 2.0 44 1.5 45 1.0
 4 5 1.5 46 1.0
 5 6 2.0
 6 7 1.5 47 1.0
 7 8 1.5 44 1.5
 8 9 1.0 41 2.0
 9 10 1.5 40 1.5
 10 11 1.5 48 1.0
 11 12 1.5 49 1.0
 12 13 1.5 39 1.5
 13 14 3.0
 14 15 1.5
 15 16 1.5 38 1.5
 16 17 1.5
 17 18 1.5 36 1.5
 18 19 3.0
 19 20 1.5
 20 21 1.5 35 1.5
 21 22 1.5 50 1.0
 22 23 1.5 51 1.0
 23 24 1.0 34 1.5
 24 25 2.0 33 1.5
 25 26 1.5 52 1.0
 26 27 2.0 53 1.0
 27 28 1.5 54 1.0
 28 29 1.5 33 1.5
 29 30 2.0 55 1.0
 30 31 1.5 56 1.0
 31 32 2.0
 32 33 1.5 57 1.0
 33
 34 35 1.5 58 1.0
 35 59 1.0
 36 37 1.5 60 1.0
 37 38 1.5 61 1.0
 38 62 1.0
 39 40 1.5 63 1.0
 40 64 1.0
 41 42 1.5 65 1.0
 42 43 2.0 66 1.0
 43 44 1.5 67 1.0
 44
 45
 46
 47
 48
 49
 50
 51
 52
 53
 54
 55
 56
 57
 58
 59
 60
 61
 62
 63
 64
 65
 66
 67
 68 69 2.0 109 1.5 110 1.0
 69 70 1.5 111 1.0
 70 71 2.0
 71 72 1.5 112 1.0
 72 73 1.5 109 1.5
 73 74 1.0 106 2.0
 74 75 1.5 105 1.5
 75 76 1.5 113 1.0
 76 77 1.5 114 1.0
 77 78 1.5 104 1.5
 78 79 3.0
 79 80 1.5
 80 81 1.5 103 1.5
 81 82 1.5
 82 83 1.5 101 1.5
 83 84 3.0
 84 85 1.5
 85 86 1.5 100 1.5
 86 87 1.5 115 1.0
 87 88 1.5 116 1.0
 88 89 1.0 99 1.5
 89 90 2.0 98 1.5
 90 91 1.5 117 1.0
 91 92 2.0 118 1.0
 92 93 1.5 119 1.0
 93 94 1.5 98 1.5
 94 95 2.0 120 1.0
 95 96 1.5 121 1.0
 96 97 2.0
 97 98 1.5 122 1.0
 98
 99 100 1.5 123 1.0
 100 124 1.0
 101 102 1.5 125 1.0
 102 103 1.5 126 1.0
 103 127 1.0
 104 105 1.5 128 1.0
 105 129 1.0
 106 107 1.5 130 1.0
 107 108 2.0 131 1.0
 108 109 1.5 132 1.0
 109
 110
 111
 112
 113
 114
 115
 116
 117
 118
 119
 120
 121
 122
 123
 124
 125
 126
 127
 128
 129
 130
 131
 132
 133 134 2.0 174 1.5 175 1.0
 134 135 1.5 176 1.0
 135 136 2.0
 136 137 1.5 177 1.0
 137 138 1.5 174 1.5
 138 139 1.0 171 2.0
 139 140 1.5 170 1.5
 140 141 1.5 178 1.0
 141 142 1.5 179 1.0
 142 143 1.5 169 1.5
 143 144 3.0
 144 145 1.5
 145 146 1.5 168 1.5
 146 147 1.5
 147 148 1.5 166 1.5
 148 149 3.0
 149 150 1.5
 150 151 1.5 165 1.5
 151 152 2.0 180 1.0
 152 153 1.5 181 1.0
 153 154 1.0 164 1.5
 154 155 2.0 163 1.5
 155 156 1.5 182 1.0
 156 157 2.0 183 1.0
 157 158 1.5 184 1.0
 158 159 1.5 163 1.5
 159 160 2.0 185 1.0
 160 161 1.5 186 1.0
 161 162 2.0
 162 163 1.5 187 1.0
 163
 164 165 1.5 188 1.0
 165 189 1.0
 166 167 1.5 190 1.0
 167 168 1.5 191 1.0
 168 192 1.0
 169 170 1.5 193 1.0
 170 194 1.0
 171 172 1.5 195 1.0
 172 173 2.0 196 1.0
 173 174 1.5 197 1.0
 174
 175
 176
 177
 178
 179
 180
 181
 182
 183
 184
 185
 186
 187
 188
 189
 190
 191
 192
 193
 194
 195
 196
 197
 198 199 2.0 239 1.5 240 1.0
 199 200 1.5 241 1.0
 200 201 2.0
 201 202 1.5 242 1.0
 202 203 1.5 239 1.5
 203 204 1.0 236 2.0
 204 205 1.5 235 1.5
 205 206 1.5 243 1.0
 206 207 1.5 244 1.0
 207 208 1.5 234 1.5
 208 209 3.0
 209 210 1.5
 210 211 1.5 233 1.5
 211 212 1.5
 212 213 1.5 231 1.5
 213 214 3.0
 214 215 1.5
 215 216 1.5 230 1.5
 216 217 1.5 245 1.0
 217 218 1.5 246 1.0
 218 219 1.0 229 1.5
 219 220 2.0 228 1.5
 220 221 1.5 247 1.0
 221 222 2.0 248 1.0
 222 223 1.5 249 1.0
 223 224 1.5 228 1.5
 224 225 2.0 250 1.0
 225 226 1.5 251 1.0
 226 227 2.0
 227 228 1.5 252 1.0
 228
 229 230 1.5 253 1.0
 230 254 1.0
 231 232 1.5 255 1.0
 232 233 1.5 256 1.0
 233 257 1.0
 234 235 1.5 258 1.0
 235 259 1.0
 236 237 1.5 260 1.0
 237 238 2.0 261 1.0
 238 239 1.5 262 1.0
 239
 240
 241
 242
 243
 244
 245
 246
 247
 248
 249
 250
 251
 252
 253
 254
 255
 256
 257
 258
 259
 260
 261
 262

