%chk=cis_l3_lb_FINAL.chk
%nprocshared=48
%mem=120GB
# SP PBE1PBE/def2svp empiricaldispersion=GD3BJ scrf=(solvent=dmso)

cis_l3_lb

4 1
 Pd                 6.61930000   -2.15580000    0.22050000
 Pd                -6.07080000   -2.16090000    0.69590000
 C                  4.07130000   -2.35580000   -2.97540000
 C                  5.29200000   -2.22380000   -2.33270000
 N                  5.69770000   -3.08250000   -1.38200000
 C                  4.97810000   -4.19660000   -1.16930000
 C                  3.73290000   -4.38470000   -1.74190000
 C                  3.21210000   -3.39400000   -2.58990000
 C                  1.78440000   -3.32710000   -2.89890000
 C                  1.10840000   -2.98120000   -4.04910000
 C                 -0.28690000   -2.83620000   -3.84280000
 C                 -0.65570000   -3.02660000   -2.52670000
 S                  0.70230000   -3.46480000   -1.55710000
 C                 -1.93900000   -2.79140000   -1.86680000
 C                 -1.96480000   -2.12540000   -0.63310000
 C                 -3.17100000   -1.92010000    0.00960000
 N                 -4.33270000   -2.33910000   -0.50690000
 C                 -4.33360000   -2.93930000   -1.70460000
 C                 -3.16650000   -3.18330000   -2.41590000
 H                  3.74480000   -1.58200000   -3.67130000
 H                  5.93010000   -1.35770000   -2.52150000
 H                  5.38230000   -4.91830000   -0.45770000
 H                  3.14560000   -5.26400000   -1.47290000
 H                  1.60420000   -2.82930000   -5.00870000
 H                 -0.99230000   -2.54090000   -4.62090000
 H                 -1.04890000   -1.74600000   -0.18080000
 H                 -3.20900000   -1.40370000    0.97090000
 H                 -5.30430000   -3.25020000   -2.09790000
 H                 -3.21640000   -3.69920000   -3.37550000
 C                  2.51270000   -2.36400000    1.29930000
 C                  3.75960000   -1.86510000    0.96420000
 N                  4.88770000   -2.54250000    1.22120000
 C                  4.81690000   -3.70080000    1.89770000
 C                  3.60770000   -4.28020000    2.23600000
 C                  2.41090000   -3.63850000    1.88130000
 C                  1.12890000   -4.32020000    2.01010000
 C                  0.88020000   -5.65970000    1.77340000
 C                 -0.49840000   -5.97180000    1.76250000
 C                 -1.29450000   -4.87730000    2.02720000
 S                 -0.34000000   -3.45540000    2.27520000
 C                 -2.74930000   -4.74420000    2.01700000
 C                 -3.40890000   -3.89770000    2.92080000
 C                 -4.74140000   -3.58790000    2.70310000
 N                 -5.43040000   -4.04810000    1.64370000
 C                 -4.84790000   -4.97380000    0.86730000
 C                 -3.52480000   -5.36340000    1.02550000
 H                  1.62650000   -1.78900000    1.02890000
 H                  3.85560000   -0.92020000    0.42480000
 H                  5.76240000   -4.19510000    2.13090000
 H                  3.60140000   -5.24130000    2.75050000
 H                  1.66890000   -6.38090000    1.55550000
 H                 -0.89950000   -6.96780000    1.57160000
 H                 -2.87900000   -3.44380000    3.75980000
 H                 -5.26300000   -2.89410000    3.36740000
 H                 -5.44390000   -5.36010000    0.03670000
 H                 -3.07770000   -6.05910000    0.31410000
 C                  8.93510000   -0.31710000    3.27780000
 C                  8.42590000   -1.20290000    2.36870000
 N                  7.26070000   -0.94850000    1.71360000
 C                  6.57030000    0.15050000    1.97450000
 C                  6.98680000    1.11140000    2.92020000
 C                  6.24280000    2.30510000    3.20040000
 C                  4.89900000    2.60930000    2.64960000
 C                  4.64760000    3.89580000    2.14330000
 C                  3.36560000    4.29450000    1.79980000
 C                  2.27610000    3.41470000    1.94700000
 C                  0.96400000    3.92150000    1.70650000
 C                 -0.10190000    4.49050000    1.53920000
 C                 -1.24030000    5.34510000    1.36440000
 N                 -2.46020000    4.81170000    1.22280000
 C                 -3.50370000    5.63810000    1.06590000
 C                 -4.80820000    5.05300000    0.90720000
 C                 -5.93270000    4.60670000    0.76240000
 C                 -7.22310000    4.01390000    0.58600000
 C                 -7.73100000    3.77200000   -0.70260000
 C                 -8.93140000    3.08920000   -0.87080000
 C                 -9.65790000    2.64330000    0.23940000
 C                -10.82480000    1.73020000    0.05810000
 C                -12.13410000    2.21750000   -0.09550000
 C                -13.23650000    1.36750000   -0.28630000
 C                -13.03800000    0.01040000   -0.33400000
 C                -11.71830000   -0.53710000   -0.17940000
 C                -11.58110000   -1.90160000   -0.39670000
 C                -10.41340000   -2.77490000   -0.36340000
 N                 -9.31950000   -2.62580000    0.28350000
 C                 -9.21270000   -0.13800000    0.25050000
 C                -10.60970000    0.35120000    0.05130000
 C                 -9.18840000    2.94430000    1.52590000
 C                 -7.98380000    3.61580000    1.70010000
 C                 -3.37270000    7.03600000    1.04150000
 C                 -2.10330000    7.58450000    1.18670000
 C                 -1.01750000    6.73560000    1.35220000
 C                  2.52950000    2.10510000    2.39390000
 C                  3.82000000    1.71370000    2.74150000
 C                  6.80990000    3.22680000    4.06540000
 C                  8.05670000    3.00710000    4.68750000
 C                  8.76050000    1.84870000    4.46140000
 C                  8.24110000    0.88240000    3.56970000
 H                  9.88370000   -0.53360000    3.77120000
 H                  8.93550000   -2.13390000    2.11850000
 H                  5.65660000    0.31030000    1.39930000
 H                  5.47100000    4.60500000    2.03470000
 H                  3.18970000    5.30630000    1.43120000
 H                 -7.16080000    4.09120000   -1.57670000
 H                 -9.28700000    2.86640000   -1.87890000
 H                -12.29410000    3.29780000   -0.05650000
 H                -14.23540000    1.78990000   -0.39890000
 H                -13.87350000   -0.67370000   -0.49430000
 H                -12.50110000   -2.42940000   -0.67300000
 H                -10.54250000   -3.71940000   -0.90710000
 H                 -8.76350000    0.61690000    0.91180000
 H                 -9.75180000    2.61160000    2.40100000
 H                 -7.61150000    3.81440000    2.70640000
 H                 -4.25410000    7.66460000    0.90990000
 H                 -1.96220000    8.66710000    1.17090000
 H                 -0.00500000    7.12340000    1.46920000
 H                  1.70130000    1.40350000    2.51090000
 H                  3.97360000    0.71340000    3.15360000
 H                  6.25800000    4.13860000    4.30180000
 H                  8.45000000    3.76380000    5.36940000
 H                  9.71690000    1.66240000    4.95340000
 C                 10.54250000   -2.63750000   -1.34560000
 C                  9.28490000   -2.86360000   -0.85110000
 N                  8.37680000   -1.85410000   -0.73460000
 C                  8.69510000   -0.62910000   -1.10820000
 C                  9.96850000   -0.28840000   -1.60840000
 C                 10.29010000    1.05180000   -1.99300000
 C                  9.23890000    2.08860000   -1.86850000
 C                  8.64950000    2.62330000   -3.02030000
 C                  7.50350000    3.40310000   -2.92930000
 C                  6.92280000    3.66670000   -1.67700000
 C                  5.64090000    4.28810000   -1.60710000
 C                  4.49770000    4.70440000   -1.59010000
 C                  3.12540000    5.12020000   -1.59260000
 N                  2.21570000    4.14830000   -1.73820000
 C                  0.92440000    4.48990000   -1.75360000
 C                 -0.06050000    3.45570000   -1.86870000
 C                 -1.00130000    2.68370000   -1.92880000
 C                 -2.23280000    1.96470000   -1.91420000
 C                 -2.52160000    0.87430000   -2.75170000
 C                 -3.79710000    0.31560000   -2.75840000
 C                 -4.81040000    0.81520000   -1.92740000
 C                 -6.21310000    0.34390000   -2.01120000
 C                 -6.81390000    0.27680000   -3.27390000
 C                 -8.17320000    0.02000000   -3.41440000
 C                 -8.97090000   -0.12320000   -2.28200000
 C                 -8.39500000   -0.09450000   -1.01400000
 C                 -9.08210000   -1.43650000    1.04760000
 C                 -7.74530000   -1.44170000    1.78470000
 N                 -6.79490000   -0.47970000    1.67190000
 C                 -6.34330000   -0.07940000    0.44300000
 C                 -7.00510000    0.06790000   -0.86580000
 C                 -4.50210000    1.88800000   -1.07670000
 C                 -3.23810000    2.44820000   -1.05670000
 C                  0.48750000    5.82300000   -1.63860000
 C                  1.43840000    6.82200000   -1.48020000
 C                  2.78490000    6.47420000   -1.45110000
 C                  7.56980000    3.21310000   -0.51450000
 C                  8.71410000    2.43270000   -0.61370000
 C                 11.54050000    1.30020000   -2.51900000
 C                 12.49520000    0.26460000   -2.65070000
 C                 12.20790000   -1.02610000   -2.26890000
 C                 10.93040000   -1.33260000   -1.74240000
 H                 11.24440000   -3.46850000   -1.43100000
 H                  8.95590000   -3.85300000   -0.53090000
 H                  7.92260000    0.13300000   -1.00400000
 H                  9.05870000    2.37210000   -4.00140000
 H                  7.01850000    3.77160000   -3.83490000
 H                 -1.75020000    0.47740000   -3.41460000
 H                 -4.00990000   -0.51980000   -3.42860000
 H                 -6.20570000    0.47930000   -4.15780000
 H                 -8.62340000   -0.01760000   -4.40810000
 H                -10.05030000   -0.23330000   -2.39750000
 H                 -9.84140000   -1.39560000    1.85530000
 H                 -7.79930000   -1.87960000    2.78880000
 H                 -5.38480000    0.43600000    0.52780000
 H                 -5.27840000    2.32240000   -0.44600000
 H                 -3.01400000    3.27380000   -0.37800000
 H                 -0.57850000    6.05100000   -1.66550000
 H                  1.13270000    7.86540000   -1.37830000
 H                  3.56640000    7.22500000   -1.32770000
 H                  7.14390000    3.43670000    0.46490000
 H                  9.18360000    2.04600000    0.29440000
 H                 11.80130000    2.31470000   -2.82760000
 H                 13.47910000    0.50220000   -3.06130000
 H                 12.95030000   -1.82000000   -2.37140000

 1 5 1.0 32 1.0 59 1.0 124 1.0
 2 149 1.0 150 1.0 151 1.0
 3 4 2.0 8 1.5 20 1.0
 4 5 1.5 21 1.0
 5 6 1.5
 6 7 2.0 22 1.0
 7 8 1.5 23 1.0
 8 9 1.0
 9 10 2.0 13 1.0
 10 11 1.5 24 1.0
 11 12 2.0 25 1.0
 12 13 1.0 14 1.0
 13
 14 15 1.5 19 1.5
 15 16 2.0 26 1.0
 16 17 1.5 27 1.0
 17 18 1.5
 18 19 1.5 28 1.0
 19 29 1.0
 20
 21
 22
 23
 24
 25
 26
 27
 28
 29
 30 31 2.0 35 1.5 47 1.0
 31 32 1.5 48 1.0
 32 33 1.5
 33 34 2.0 49 1.0
 34 35 1.5 50 1.0
 35 36 1.0
 36 37 2.0 40 1.0
 37 38 1.5 51 1.0
 38 39 2.0 52 1.0
 39 40 1.0 41 1.0
 40
 41 42 1.5 46 1.5
 42 43 2.0 53 1.0
 43 44 1.5 54 1.0
 44 45 1.5
 45 46 1.5 55 1.0
 46 56 1.0
 47
 48
 49
 50
 51
 52
 53
 54
 55
 56
 57 58 2.0 98 1.5 99 1.0
 58 59 1.5 100 1.0
 59 60 1.5
 60 61 1.5 101 1.0
 61 62 1.5 98 1.5
 62 63 1.0 95 2.0
 63 64 1.5 94 1.5
 64 65 2.0 102 1.0
 65 66 1.5 103 1.0
 66 67 1.5 93 1.5
 67 68 3.0
 68 69 1.5
 69 70 1.5 92 1.5
 70 71 1.5
 71 72 1.5 90 1.5
 72 73 3.0
 73 74 1.5
 74 75 1.5 89 1.5
 75 76 1.5 104 1.0
 76 77 1.5 105 1.0
 77 78 1.0 88 1.5
 78 79 1.5 87 1.5
 79 80 1.5 106 1.0
 80 81 2.0 107 1.0
 81 82 1.5 108 1.0
 82 83 1.5 87 1.5
 83 84 1.0 109 1.0
 84 85 2.0 110 1.0
 85 148 1.0
 86 87 1.0 111 1.0 147 1.0 148 1.0
 87
 88 89 1.5 112 1.0
 89 113 1.0
 90 91 1.5 114 1.0
 91 92 1.5 115 1.0
 92 116 1.0
 93 94 1.5 117 1.0
 94 118 1.0
 95 96 1.5 119 1.0
 96 97 2.0 120 1.0
 97 98 1.5 121 1.0
 98
 99
 100
 101
 102
 103
 104
 105
 106
 107
 108
 109
 110
 111
 112
 113
 114
 115
 116
 117
 118
 119
 120
 121
 122 123 2.0 163 1.5 164 1.0
 123 124 1.5 165 1.0
 124 125 2.0
 125 126 1.5 166 1.0
 126 127 1.5 163 1.5
 127 128 1.0 160 2.0
 128 129 1.5 159 1.5
 129 130 1.5 167 1.0
 130 131 1.5 168 1.0
 131 132 1.5 158 1.5
 132 133 3.0
 133 134 1.5
 134 135 1.5 157 1.5
 135 136 1.5
 136 137 1.5 155 1.5
 137 138 3.0
 138 139 1.5
 139 140 1.5 154 1.5
 140 141 1.5 169 1.0
 141 142 1.5 170 1.0
 142 143 1.0 153 1.5
 143 144 1.5 152 1.5
 144 145 1.5 171 1.0
 145 146 1.5 172 1.0
 146 147 1.5 173 1.0
 147 152 1.5
 148 149 1.0 174 1.0
 149 150 1.5 175 1.0
 150 151 1.5
 151 152 1.0 176 1.0
 152
 153 154 2.0 177 1.0
 154 178 1.0
 155 156 1.5 179 1.0
 156 157 1.5 180 1.0
 157 181 1.0
 158 159 1.5 182 1.0
 159 183 1.0
 160 161 1.5 184 1.0
 161 162 2.0 185 1.0
 162 163 1.5 186 1.0
 163
 164
 165
 166
 167
 168
 169
 170
 171
 172
 173
 174
 175
 176
 177
 178
 179
 180
 181
 182
 183
 184
 185
 186

