220
Coordinates from ORCA-job _fe4dd E -7946.142608947912
  Fe     11.347822     13.936203     10.997262
  Fe      7.539963      5.309392     12.504441
  O      13.635797      9.864359     13.305948
  O      11.641660      8.851357     15.684389
  N       9.646694     14.443710     10.185591
  N      11.535721     12.852034      9.418114
  N       9.012682      4.330092     11.671153
  N       7.285821      3.625852     13.482832
  C       8.508707     15.046009     10.770265
  C       7.236868     14.499607     10.534850
  C       6.104678     15.096135     11.079958
  C       6.225622     16.241863     11.865639
  C       7.489394     16.774536     12.119151
  C       8.626374     16.174399     11.589554
  C       9.562546     14.019774      8.971292
  C      10.588948     13.118272      8.499981
  C      10.538548     12.430764      7.285235
  C      11.424307     11.382441      7.076463
  C      12.368471     11.061971      8.063773
  C      12.412391     11.877737      9.200462
  C      14.826944     11.605431     14.457249
  C      15.509026     12.027739     15.584358
  C      15.685164     11.187508     16.704990
  C      16.352892     11.639907     17.872452
  C      16.488912     10.813832     18.962118
  C      15.961030      9.503634     18.926473
  C      15.310214      9.035405     17.806568
  C      15.155370      9.861031     16.666625
  C      14.471422      9.418293     15.492225
  C      14.310883     10.274646     14.421596
  C      14.452288      9.321041     12.284610
  C      13.907575      8.048710     15.402711
  C      14.772731      6.934708     15.162384
  C      16.181689      7.078533     15.089379
  C      16.989378      5.985437     14.870337
  C      16.434531      4.697130     14.700989
  C      15.071667      4.527310     14.747555
  C      14.212533      5.633304     14.975051
  C      12.808752      5.483271     15.023854
  C      11.980612      6.552739     15.294463
  C      12.541178      7.852287     15.492586
  C      11.816249      9.765732     16.750110
  C       9.803587      4.738275     10.686647
  C      10.649864      3.867443      9.975440
  C      10.659352      2.520226     10.363216
  C       9.842069      2.096639     11.401548
  C       9.018140      3.028665     12.029299
  C       8.107723      2.711714     13.101947
  C       6.558656      3.401146     14.680238
  C       7.242419      2.954332     15.820317
  C       6.549892      2.723256     17.005273
  C       5.172627      2.930882     17.063246
  C       4.492442      3.383779     15.932106
  C       5.180211      3.632326     14.749047
  O      11.271173      8.605535      7.749404
  O      12.015790      6.361731     10.012494
  N      12.385715     15.267072      9.993019
  N      13.100404     13.473637     11.727802
  N       8.557933      5.855410     14.046206
  N       6.076152      6.226661     13.414632
  C      12.006096     15.981051      8.826694
  C      10.932382     16.878063      8.838725
  C      10.601430     17.579595      7.684081
  C      11.313602     17.371547      6.502285
  C      12.365855     16.457548      6.479920
  C      12.715411     15.766189      7.636313
  C      13.634873     15.251125     10.301629
  C      14.058478     14.339728     11.335991
  C      15.332205     14.332023     11.900560
  C      15.607808     13.424502     12.913438
  C      14.613159     12.532084     13.337580
  C      13.367248     12.597245     12.687911
  C      13.236853      9.875314      8.001763
  C      14.601939      9.967127      8.174130
  C      15.425087      8.818813      8.148631
  C      16.834409      8.909226      8.283512
  C      17.614695      7.778104      8.259653
  C      17.011552      6.509573      8.107942
  C      15.646605      6.389253      7.978399
  C      14.814690      7.537768      7.981573
  C      13.394188      7.444339      7.840523
  C      12.626603      8.594832      7.831683
  C      10.616404      7.889362      6.720679
  C      12.748712      6.111545      7.759265
  C      12.809278      5.339110      6.558293
  C      13.452277      5.811939      5.388764
  C      13.490023      5.038855      4.249712
  C      12.890646      3.759688      4.223436
  C      12.253381      3.275722      5.340610
  C      12.193851      4.050239      6.528194
  C      11.515896      3.589446      7.677683
  C      11.431578      4.351750      8.829486
  C      12.078409      5.624230      8.862843
  C      13.046379      6.083251     10.944062
  C       9.878327      5.850337     14.193848
  C      10.516773      6.406581     15.309000
  C       9.701946      6.873021     16.351786
  C       8.321020      6.837281     16.214734
  C       7.778484      6.365973     15.017166
  C       6.400975      6.547015     14.619862
  C       4.845605      6.698826     12.900330
  C       4.016934      5.878553     12.126110
  C       2.791432      6.354665     11.672759
  C       2.391300      7.660732     11.954962
  C       3.230128      8.495308     12.692402
  C       4.449941      8.019918     13.163202
  N      11.179666     14.860206     12.708702
  N      10.325691     12.542713     11.898568
  N       7.846264      7.018596     11.623301
  N       6.639011      4.859260     10.831122
  C      11.964280     15.942496     13.171524
  C      12.069407     17.128303     12.434208
  C      12.854267     18.173989     12.906516
  C      13.573920     18.036379     14.093802
  C      13.499328     16.844473     14.814110
  C      12.697693     15.802661     14.361172
  C      10.507483     14.176479     13.570121
  C       9.959049     12.908592     13.143459
  C       9.155983     12.091140     13.941332
  C       8.681730     10.896715     13.417666
  C       9.002071     10.546290     12.098671
  C       9.849232     11.406762     11.389201
  C       8.410897      8.115486     12.127124
  C       8.434098      9.343017     11.453750
  C       7.857230      9.390735     10.176990
  C       7.249014      8.255720      9.659025
  C       7.240730      7.084995     10.420182
  C       6.637539      5.840892      9.995946
  C       6.324427      3.565547     10.352613
  C       6.832955      3.146502      9.111955
  C       6.558411      1.867494      8.640573
  C       5.773154      0.995662      9.394545
  C       5.275778      1.405546     10.631956
  C       5.561491      2.675879     11.119415
  H       7.141186     13.587798      9.940345
  H       5.119281     14.664092     10.890852
  H       5.336779     16.717283     12.285852
  H       7.592607     17.672516     12.732000
  H       9.603067     16.604538     11.795987
  H       8.704736     14.259522      8.331433
  H       9.789213     12.695210      6.536348
  H      11.385073     10.804615      6.151588
  H      13.143712     11.682170      9.987121
  H      15.892693     13.050219     15.638025
  H      16.757032     12.654914     17.893906
  H      17.002331     11.165972     19.858956
  H      16.074443      8.855682     19.798308
  H      14.911663      8.019170     17.790791
  H      15.241106     10.029803     11.976415
  H      14.932283      8.384969     12.615102
  H      13.803161      9.112950     11.422875
  H      16.627711      8.064910     15.226612
  H      18.073713      6.112679     14.837036
  H      17.092634      3.840808     14.540389
  H      14.632816      3.534117     14.623216
  H      12.381451      4.485513     14.889329
  H      12.365318     10.664890     16.433490
  H      12.356656      9.309099     17.593664
  H      10.810934     10.058290     17.087366
  H       9.773770      5.796867     10.428609
  H      11.317681      1.810915      9.856664
  H       9.831352      1.053148     11.721498
  H       8.136379      1.724247     13.579030
  H       8.325249      2.811223     15.781401
  H       7.090113      2.376113     17.888798
  H       4.627274      2.739049     17.989781
  H       3.412256      3.540723     15.968555
  H       4.634197      3.990349     13.877442
  H      10.361449     17.046613      9.750882
  H       9.780990     18.300061      7.709676
  H      11.047021     17.923908      5.598710
  H      12.922764     16.283572      5.556470
  H      13.529307     15.036972      7.614702
  H      14.365041     15.892493      9.792632
  H      16.088926     15.037991     11.553799
  H      16.598987     13.394672     13.371320
  H      12.569821     11.912752     12.976074
  H      15.070383     10.948849      8.288201
  H      17.292126      9.895332      8.395158
  H      18.700224      7.854045      8.350295
  H      17.637660      5.614996      8.083552
  H      15.197391      5.402459      7.855720
  H      11.243382      7.808310      5.819163
  H      10.336510      6.874616      7.041195
  H       9.704582      8.451920      6.471471
  H      13.927070      6.794722      5.397615
  H      13.991592      5.415096      3.355475
  H      12.933819      3.160816      3.311587
  H      11.783866      2.289203      5.325877
  H      11.012654      2.620006      7.628019
  H      12.844954      6.679748     11.844264
  H      14.034565      6.356625     10.538163
  H      13.063504      5.013866     11.218975
  H      10.469367      5.454685     13.365538
  H      10.154963      7.267692     17.262431
  H       7.664884      7.204567     17.006461
  H       5.688479      7.021366     15.305693
  H       4.310484      4.856702     11.897359
  H       2.138530      5.694172     11.098114
  H       1.427543      8.027957     11.595901
  H       2.929800      9.524228     12.903331
  H       5.115948      8.681161     13.723274
  H      11.530617     17.245440     11.496123
  H      12.906950     19.105901     12.339668
  H      14.197662     18.857481     14.453744
  H      14.073920     16.724862     15.735305
  H      12.671684     14.857572     14.909279
  H      10.379082     14.512941     14.605648
  H       8.892237     12.405710     14.952356
  H       8.028734     10.257684     14.016509
  H      10.166373     11.142218     10.379086
  H       8.891608      8.024609     13.102448
  H       7.846904     10.324243      9.609905
  H       6.760728      8.274477      8.683297
  H       6.228660      5.741447      8.983523
  H       7.480233      3.811954      8.535153
  H       6.962978      1.546067      7.678302
  H       5.553015     -0.006738      9.020876
  H       4.658769      0.726920     11.224882
  H       5.176421      2.973884     12.092515
220
Coordinates from ORCA-job _fe4dd E -7946.142621623011
  Fe     11.347821     13.936193     10.997212
  Fe      7.539970      5.309398     12.504496
  O      13.635996      9.864263     13.305930
  O      11.641664      8.851325     15.684359
  N       9.646678     14.443711     10.185593
  N      11.535728     12.851938      9.418134
  N       9.012714      4.330139     11.671193
  N       7.285769      3.625857     13.482867
  C       8.508724     15.046038     10.770258
  C       7.236902     14.499604     10.534876
  C       6.104739     15.096166     11.079953
  C       6.225646     16.241829     11.865696
  C       7.489395     16.774532     12.119214
  C       8.626393     16.174393     11.589618
  C       9.562513     14.019742      8.971245
  C      10.588974     13.118237      8.499991
  C      10.538505     12.430729      7.285301
  C      11.424311     11.382464      7.076480
  C      12.368445     11.061939      8.063803
  C      12.412447     11.877714      9.200431
  C      14.826969     11.605391     14.457218
  C      15.509002     12.027699     15.584342
  C      15.685135     11.187513     16.704981
  C      16.352898     11.639895     17.872446
  C      16.488913     10.813875     18.962161
  C      15.961070      9.503633     18.926494
  C      15.310192      9.035438     17.806565
  C      15.155374      9.861034     16.666563
  C      14.471518      9.418266     15.492129
  C      14.310751     10.274697     14.421621
  C      14.452311      9.321044     12.284572
  C      13.907517      8.048743     15.402777
  C      14.772653      6.934778     15.162368
  C      16.181637      7.078525     15.089359
  C      16.989372      5.985443     14.870229
  C      16.434509      4.697105     14.700965
  C      15.071636      4.527311     14.747552
  C      14.212523      5.633341     14.975097
  C      12.808771      5.483270     15.023833
  C      11.980590      6.552679     15.294462
  C      12.541135      7.852220     15.492567
  C      11.816214      9.765747     16.750089
  C       9.803573      4.738271     10.686640
  C      10.649820      3.867476      9.975394
  C      10.659306      2.520270     10.363227
  C       9.842046      2.096650     11.401586
  C       9.018142      3.028683     12.029321
  C       8.107687      2.711655     13.101947
  C       6.558637      3.401163     14.680219
  C       7.242395      2.954310     15.820262
  C       6.549888      2.723228     17.005222
  C       5.172624      2.930885     17.063227
  C       4.492441      3.383837     15.932100
  C       5.180214      3.632362     14.749039
  O      11.271203      8.605558      7.749421
  O      12.015999      6.361650     10.012496
  N      12.385685     15.267107      9.992992
  N      13.100383     13.473581     11.727754
  N       8.558012      5.855459     14.046194
  N       6.076128      6.226660     13.414632
  C      12.006069     15.981053      8.826714
  C      10.932353     16.878038      8.838732
  C      10.601379     17.579552      7.684084
  C      11.313596     17.371537      6.502300
  C      12.365873     16.457559      6.479971
  C      12.715414     15.766218      7.636369
  C      13.634882     15.251184     10.301637
  C      14.058457     14.339712     11.335970
  C      15.332183     14.332038     11.900529
  C      15.607743     13.424514     12.913438
  C      14.613110     12.532094     13.337631
  C      13.367242     12.597260     12.687917
  C      13.236882      9.875368      8.001769
  C      14.601952      9.967111      8.174161
  C      15.425056      8.818800      8.148589
  C      16.834392      8.909249      8.283502
  C      17.614708      7.778142      8.259656
  C      17.011558      6.509576      8.108036
  C      15.646586      6.389297      7.978412
  C      14.814593      7.537779      7.981606
  C      13.394125      7.444363      7.840471
  C      12.626624      8.594906      7.831702
  C      10.616378      7.889374      6.720698
  C      12.748805      6.111490      7.759356
  C      12.809283      5.339101      6.558358
  C      13.452248      5.811928      5.388779
  C      13.490057      5.038827      4.249698
  C      12.890613      3.759661      4.223394
  C      12.253385      3.275726      5.340611
  C      12.193822      4.050258      6.528203
  C      11.515900      3.589501      7.677698
  C      11.431620      4.351761      8.829517
  C      12.078286      5.624296      8.862829
  C      13.046398      6.083230     10.944104
  C       9.878384      5.850312     14.193878
  C      10.516777      6.406629     15.308969
  C       9.701929      6.873009     16.351770
  C       8.321014      6.837335     16.214666
  C       7.778527      6.365969     15.017169
  C       6.400974      6.547053     14.619928
  C       4.845597      6.698793     12.900337
  C       4.016949      5.878546     12.126043
  C       2.791436      6.354672     11.672683
  C       2.391350      7.660743     11.954887
  C       3.230155      8.495241     12.692400
  C       4.449972      8.019894     13.163175
  N      11.179703     14.860202     12.708768
  N      10.325735     12.542668     11.898537
  N       7.846332      7.018592     11.623332
  N       6.639034      4.859227     10.831051
  C      11.964370     15.942488     13.171491
  C      12.069416     17.128322     12.434176
  C      12.854357     18.173968     12.906472
  C      13.573902     18.036371     14.093824
  C      13.499314     16.844468     14.814092
  C      12.697651     15.802699     14.361196
  C      10.507431     14.176443     13.570181
  C       9.959042     12.908514     13.143441
  C       9.155967     12.091127     13.941340
  C       8.681750     10.896706     13.417638
  C       9.002033     10.546317     12.098630
  C       9.849242     11.406740     11.389198
  C       8.410916      8.115492     12.127129
  C       8.434051      9.343026     11.453805
  C       7.857244      9.390728     10.177025
  C       7.249008      8.255739      9.659024
  C       7.240785      7.085055     10.420196
  C       6.637524      5.840959      9.995874
  C       6.324492      3.565487     10.352633
  C       6.832898      3.146510      9.111933
  C       6.558399      1.867512      8.640588
  C       5.773144      0.995685      9.394523
  C       5.275848      1.405494     10.631989
  C       5.561483      2.675862     11.119445
  H       7.141087     13.587818      9.940357
  H       5.119380     14.664126     10.890813
  H       5.336767     16.717254     12.285794
  H       7.592560     17.672531     12.732036
  H       9.603131     16.604544     11.795862
  H       8.704709     14.259511      8.331421
  H       9.789181     12.695255      6.536413
  H      11.385052     10.804639      6.151628
  H      13.143662     11.682136      9.987163
  H      15.892690     13.050145     15.637999
  H      16.757049     12.654890     17.893881
  H      17.002454     11.165998     19.858957
  H      16.074509      8.855646     19.798350
  H      14.911697      8.019149     17.790738
  H      15.241017     10.029760     11.976430
  H      14.932198      8.385064     12.615031
  H      13.803206      9.112912     11.422900
  H      16.627725      8.064872     15.226614
  H      18.073764      6.112635     14.836957
  H      17.092602      3.840757     14.540372
  H      14.632831      3.534069     14.623242
  H      12.381477      4.485563     14.889243
  H      12.365247     10.664991     16.433506
  H      12.356658      9.309004     17.593584
  H      10.810879     10.058376     17.087390
  H       9.773796      5.796839     10.428586
  H      11.317600      1.810918      9.856729
  H       9.831309      1.053099     11.721548
  H       8.136394      1.724235     13.579029
  H       8.325222      2.811280     15.781432
  H       7.090116      2.376119     17.888767
  H       4.627304      2.739062     17.989813
  H       3.412249      3.540733     15.968604
  H       4.634246      3.990326     13.877412
  H      10.361498     17.046593      9.750910
  H       9.780973     18.300062      7.709618
  H      11.047028     17.923869      5.598673
  H      12.922755     16.283556      5.556502
  H      13.529241     15.036953      7.614664
  H      14.365061     15.892487      9.792636
  H      16.088940     15.038056     11.553752
  H      16.598935     13.394729     13.371255
  H      12.569857     11.912762     12.976095
  H      15.070370     10.948795      8.288273
  H      17.292176      9.895353      8.395111
  H      18.700247      7.854106      8.350302
  H      17.637730      5.614984      8.083622
  H      15.197435      5.402471      7.855708
  H      11.243468      7.808356      5.819234
  H      10.336390      6.874600      7.041185
  H       9.704482      8.451895      6.471458
  H      13.927112      6.794707      5.397678
  H      13.991664      5.415074      3.355437
  H      12.933878      3.160710      3.311577
  H      11.783893      2.289200      5.325892
  H      11.012706      2.620064      7.628043
  H      12.844999      6.679739     11.844239
  H      14.034449      6.356618     10.538245
  H      13.063477      5.013960     11.218982
  H      10.469357      5.454742     13.365499
  H      10.154918      7.267686     17.262403
  H       7.664840      7.204558     17.006406
  H       5.688477      7.021395     15.305698
  H       4.310538      4.856654     11.897492
  H       2.138481      5.694208     11.098072
  H       1.427572      8.028002     11.595950
  H       2.929851      9.524127     12.903372
  H       5.115868      8.681229     13.723271
  H      11.530516     17.245390     11.496114
  H      12.906953     19.105900     12.339653
  H      14.197636     18.857462     14.453765
  H      14.073848     16.724871     15.735272
  H      12.671652     14.857600     14.909241
  H      10.379050     14.512940     14.605677
  H       8.892265     12.405838     14.952389
  H       8.028776     10.257739     14.016508
  H      10.166392     11.142248     10.379112
  H       8.891601      8.024586     13.102422
  H       7.846890     10.324172      9.609904
  H       6.760647      8.274378      8.683264
  H       6.228633      5.741465      8.983501
  H       7.480197      3.811957      8.535197
  H       6.962915      1.546120      7.678336
  H       5.553008     -0.006702      9.020855
  H       4.658765      0.726919     11.224897
  H       5.176398      2.973994     12.092530
