218
Coordinates from ORCA-job _fe6ll E -8019.915584748455
  Fe     12.337101     14.718430      9.514227
  Fe      7.352378      3.966715     12.807173
  O      12.080479     10.343597     12.358473
  O      10.856403      7.543201     14.389991
  N      11.166621     16.245892      9.738563
  N      11.870593     14.349478     11.362505
  N       9.278389      3.934704     13.083792
  N       7.606807      2.074763     12.415091
  C      10.931603     17.324816      8.846349
  C      10.322270     17.095297      7.609071
  C      10.118957     18.157660      6.734970
  C      10.526227     19.446994      7.083199
  C      11.116278     19.674458      8.325200
  C      11.316106     18.618599      9.213236
  C      10.616119     16.280943     10.896468
  C      10.940226     15.214225     11.816511
  C      10.343900     15.060266     13.067987
  C      10.692955     13.967319     13.846600
  C      11.660767     13.056003     13.387371
  C      12.234284     13.320787     12.128908
  C      12.083929     11.914819     14.218114
  C      12.299103     12.123948     15.569860
  C      12.767423     11.103429     16.419159
  C      13.030903     11.346962     17.792221
  C      13.513011     10.345048     18.598612
  C      13.743349      9.059825     18.057133
  C      13.494544      8.794037     16.728841
  C      13.002651      9.806995     15.868771
  C      12.746004      9.575957     14.482008
  C      12.299254     10.605292     13.678661
  C      13.053056      8.232593     13.926545
  C      14.398833      7.943757     13.550609
  C      15.406375      8.939029     13.535874
  C      16.721643      8.603417     13.303381
  C      17.094689      7.260028     13.073264
  C      16.132768      6.279157     13.042268
  C      14.769402      6.595489     13.272294
  C      13.772366      5.599420     13.286745
  C      12.454513      5.872952     13.621025
  C      12.112062      7.222038     13.968687
  C      10.126692      4.946917     13.248393
  C      11.475354      4.767549     13.614215
  C      11.867281      3.449491     13.917080
  C      10.992090      2.393530     13.718291
  C       9.706664      2.667378     13.252920
  C       8.768905      1.668903     12.792967
  C       6.801325      1.206273     11.639454
  C       7.375265      0.552667     10.538710
  C       6.601348     -0.283641      9.739897
  C       5.251126     -0.477255     10.029047
  C       4.679636      0.168440     11.126075
  C       5.444205      1.014465     11.924276
  O      11.952453      9.644514      8.192473
  O      10.446977      6.650317     10.035753
  N      13.963431     15.716027      9.960221
  N      13.578812     13.207082      9.365494
  N       7.431176      4.311993     10.897893
  N       5.398008      4.017181     12.501344
  C      14.132992     17.030674     10.464724
  C      13.535882     17.377457     11.682029
  C      13.711570     18.656162     12.203044
  C      14.471044     19.602016     11.511938
  C      15.089159     19.246919     10.313898
  C      14.932161     17.964335      9.794521
  C      15.007097     15.056833      9.604912
  C      14.841614     13.666717      9.254197
  C      15.901294     12.818057      8.942344
  C      15.657790     11.457756      8.840689
  C      14.367896     10.948764      9.074305
  C      13.347607     11.898226      9.274618
  C      14.141330      9.493444      9.136851
  C      15.167185      8.673217      9.578429
  C      15.083866      7.265286      9.578078
  C      16.196758      6.454060      9.914373
  C      16.106779      5.083291      9.857090
  C      14.886434      4.475768      9.489718
  C      13.792466      5.239515      9.144334
  C      13.869579      6.652078      9.156488
  C      12.801288      7.484559      8.700197
  C      12.934974      8.864523      8.693151
  C      11.658354      6.842172      7.997131
  C      11.784903      6.550365      6.602017
  C      12.894371      6.973570      5.832310
  C      12.985363      6.647344      4.496820
  C      11.978149      5.884900      3.863521
  C      10.889662      5.457930      4.585647
  C      10.769975      5.777056      5.963349
  C       9.684207      5.318042      6.735533
  C       9.555137      5.586359      8.088208
  C      10.569666      6.377272      8.716967
  C       8.487536      4.660635     10.170857
  C       8.392050      5.070937      8.828025
  C       7.127672      4.970921      8.225118
  C       6.035325      4.549817      8.968414
  C       6.212639      4.274904     10.323169
  C       5.119622      4.105593     11.247627
  C       4.337720      4.212811     13.423020
  C       4.161917      3.381124     14.535531
  C       3.117424      3.617369     15.424861
  C       2.252935      4.695958     15.231868
  C       2.433220      5.536516     14.133766
  C       3.468561      5.299005     13.234403
  N      12.629523     14.969215      7.576662
  N      10.863977     13.618722      8.886339
  N       7.153310      5.845737     13.216455
  N       7.174985      3.795173     14.757475
  C      13.690752     15.620032      6.888803
  C      14.591407     14.850989      6.140108
  C      15.625665     15.475204      5.447220
  C      15.752464     16.863354      5.482648
  C      14.839175     17.623780      6.213834
  C      13.814334     17.010234      6.929412
  C      11.820854     14.278183      6.857525
  C      10.793014     13.532875      7.543309
  C       9.814148     12.773766      6.903421
  C       8.926910     12.034084      7.670694
  C       9.045238     12.056860      9.067076
  C      10.014516     12.906209      9.613649
  C       7.306799      6.873028     12.396853
  C       6.922333      8.179719     12.720297
  C       6.309610      8.376425     13.966166
  C       6.186565      7.306288     14.844466
  C       6.646239      6.050228     14.448646
  C       6.741336      4.882433     15.297867
  C       7.576318      2.735620     15.607189
  C       8.427657      3.012786     16.687284
  C       8.868261      1.984139     17.514256
  C       8.462784      0.671306     17.276269
  C       7.608360      0.394718     16.208411
  C       7.173308      1.415505     15.368874
  C       7.263309      9.246418     11.765918
  C       7.389428      8.958811     10.397599
  C       7.906974      9.893135      9.516711
  C       8.306503     11.158364      9.967172
  C       8.092278     11.479101     11.317653
  C       7.583480     10.539189     12.202895
  H       9.967635     16.097737      7.350555
  H       9.626531     17.981682      5.775762
  H      10.363790     20.276618      6.391225
  H      11.418983     20.683888      8.613341
  H      11.796115     18.789489     10.178639
  H       9.925023     17.080416     11.188679
  H       9.598935     15.782242     13.408843
  H      10.211688     13.806139     14.813680
  H      13.016439     12.669005     11.738387
  H      12.155249     13.122075     15.991036
  H      12.849239     12.346688     18.194633
  H      13.725432     10.538954     19.652380
  H      14.133022      8.270949     18.704555
  H      13.689217      7.798472     16.327461
  H      15.131818      9.972840     13.749160
  H      17.491856      9.378523     13.319288
  H      18.146516      7.005976     12.919988
  H      16.405401      5.239546     12.849150
  H      14.063668      4.584671     13.007271
  H       9.739259      5.946753     13.049641
  H      12.871903      3.254570     14.296263
  H      11.296860      1.363539     13.913674
  H       9.082350      0.622638     12.695243
  H       8.426971      0.722345     10.295342
  H       7.057343     -0.789564      8.885697
  H       4.644381     -1.136364      9.403386
  H       3.626675      0.005575     11.368196
  H       4.985588      1.503352     12.782062
  H      12.983095     16.628759     12.248047
  H      13.262945     18.915051     13.165071
  H      14.597584     20.608203     11.918352
  H      15.707111     19.972734      9.779681
  H      15.414903     17.694030      8.854993
  H      16.014155     15.485867      9.661504
  H      16.902033     13.225318      8.787707
  H      16.473677     10.780766      8.580449
  H      12.316254     11.564302      9.381005
  H      16.089555      9.123677      9.949753
  H      17.130526      6.938166     10.206758
  H      16.975889      4.462950     10.089090
  H      14.820058      3.385713      9.452464
  H      12.868241      4.758730      8.821850
  H      13.686391      7.551582      6.309640
  H      13.851019      6.975632      3.916958
  H      12.071716      5.631013      2.805387
  H      10.104961      4.863662      4.109838
  H       8.937118      4.692425      6.241905
  H       9.453540      4.659637     10.672221
  H       6.992894      5.261656      7.181315
  H       5.041056      4.485088      8.523132
  H       4.086668      4.139670     10.882288
  H       4.827659      2.535965     14.703453
  H       2.973505      2.946647     16.275484
  H       1.435893      4.876105     15.934806
  H       1.759230      6.381698     13.973639
  H       3.622662      5.975818     12.390261
  H      14.484655     13.763190      6.113181
  H      16.328124     14.875068      4.864519
  H      16.555690     17.354657      4.928710
  H      14.919153     18.713231      6.224989
  H      13.097316     17.606507      7.493125
  H      11.889068     14.254091      5.763107
  H       9.764417     12.759923      5.813702
  H       8.149352     11.442058      7.184859
  H      10.130824     12.960433     10.694551
  H       7.805622      6.669645     11.449612
  H       5.934825      9.360455     14.253923
  H       5.737664      7.434884     15.830414
  H       6.515980      4.955994     16.368729
  H       8.763900      4.037880     16.862388
  H       9.529739      2.210263     18.353501
  H       8.805783     -0.136294     17.926965
  H       7.270482     -0.628261     16.028805
  H       6.504644      1.183496     14.541122
  H       7.092940      7.983243     10.009484
  H       8.040669      9.613176      8.470389
  H       8.327453     12.477710     11.691322
  H       7.473849     10.805901     13.256099
  H      10.512338      6.834207     14.946514
  H      11.226764      7.161979     10.310837
  H      11.409805     10.949663     12.024676
  H      11.290938      9.054071      7.796632
218
Coordinates from ORCA-job _fe6ll E -8019.915670614502
  Fe     12.336847     14.718257      9.514109
  Fe      7.352491      3.967007     12.807350
  O      12.080417     10.343707     12.358501
  O      10.856384      7.543124     14.389815
  N      11.166685     16.246062      9.738581
  N      11.870563     14.349528     11.362820
  N       9.278709      3.934798     13.083876
  N       7.606651      2.074713     12.415153
  C      10.931669     17.325040      8.846151
  C      10.322208     17.095350      7.608935
  C      10.118943     18.157700      6.734979
  C      10.526145     19.446948      7.083360
  C      11.116378     19.674435      8.325190
  C      11.316142     18.618732      9.213229
  C      10.616051     16.280855     10.896618
  C      10.940158     15.214093     11.816797
  C      10.343839     15.060178     13.068260
  C      10.692983     13.967315     13.846709
  C      11.660647     13.055958     13.387296
  C      12.234232     13.320697     12.128995
  C      12.083924     11.914947     14.217877
  C      12.299053     12.123924     15.569717
  C      12.767246     11.103405     16.419246
  C      13.030863     11.347034     17.792296
  C      13.512983     10.345154     18.598585
  C      13.743369      9.059935     18.057254
  C      13.494580      8.794038     16.728936
  C      13.002829      9.807066     15.868682
  C      12.745960      9.576168     14.481796
  C      12.299129     10.605517     13.678494
  C      13.052875      8.232484     13.926507
  C      14.398859      7.943711     13.550800
  C      15.406515      8.939049     13.536063
  C      16.721750      8.603245     13.303367
  C      17.094663      7.259879     13.073239
  C      16.132827      6.279076     13.042081
  C      14.769482      6.595424     13.272331
  C      13.772211      5.599447     13.286894
  C      12.454213      5.873002     13.620840
  C      12.111978      7.221860     13.969006
  C      10.126867      4.947039     13.248358
  C      11.475291      4.767682     13.614224
  C      11.867459      3.449627     13.916995
  C      10.992399      2.393627     13.718204
  C       9.706979      2.667525     13.252908
  C       8.769107      1.668913     12.792934
  C       6.801169      1.206210     11.639296
  C       7.375269      0.552530     10.538667
  C       6.601308     -0.283777      9.739986
  C       5.251165     -0.477311     10.029275
  C       4.679670      0.168317     11.126221
  C       5.444084      1.014393     11.924305
  O      11.952482      9.644478      8.192454
  O      10.447046      6.650245     10.035713
  N      13.963433     15.716190      9.960116
  N      13.578975     13.206914      9.365303
  N       7.431276      4.311958     10.897614
  N       5.397952      4.017106     12.501472
  C      14.133038     17.030922     10.464877
  C      13.535837     17.377505     11.682201
  C      13.711526     18.656117     12.203080
  C      14.471132     19.601796     11.512000
  C      15.089075     19.246866     10.313884
  C      14.932251     17.964371      9.794559
  C      15.007249     15.056732      9.605016
  C      14.841735     13.666469      9.254140
  C      15.901458     12.817764      8.942359
  C      15.657718     11.457560      8.840859
  C      14.367727     10.948694      9.074297
  C      13.347690     11.898083      9.274787
  C      14.141068      9.493626      9.136937
  C      15.167100      8.673465      9.578476
  C      15.084063      7.265420      9.578181
  C      16.196801      6.454096      9.914529
  C      16.106852      5.083453      9.857094
  C      14.886624      4.475791      9.489678
  C      13.792527      5.239383      9.144098
  C      13.869807      6.652107      9.156444
  C      12.801380      7.484653      8.700221
  C      12.934997      8.864622      8.692969
  C      11.658199      6.842137      7.997102
  C      11.784761      6.550162      6.601908
  C      12.894449      6.973521      5.832280
  C      12.985212      6.647260      4.496684
  C      11.977938      5.884799      3.863521
  C      10.889504      5.457964      4.585575
  C      10.769635      5.777050      5.963207
  C       9.683957      5.318092      6.735695
  C       9.555022      5.586346      8.088461
  C      10.569598      6.377186      8.717050
  C       8.487613      4.660653     10.170703
  C       8.392070      5.071020      8.828107
  C       7.127812      4.970872      8.224990
  C       6.035390      4.549819      8.968054
  C       6.212787      4.274857     10.322818
  C       5.119605      4.105621     11.247492
  C       4.337574      4.212906     13.423242
  C       4.161845      3.381016     14.535608
  C       3.117386      3.617293     15.424763
  C       2.252936      4.695779     15.231665
  C       2.433176      5.536383     14.133695
  C       3.468396      5.298989     13.234325
  N      12.629536     14.969259      7.576492
  N      10.863923     13.618658      8.886362
  N       7.153238      5.845981     13.216400
  N       7.174868      3.795104     14.757539
  C      13.690886     15.620078      6.888772
  C      14.591435     14.850987      6.140079
  C      15.625604     15.475166      5.447160
  C      15.752219     16.863335      5.482517
  C      14.839078     17.623837      6.213822
  C      13.814395     17.010279      6.929466
  C      11.820862     14.278097      6.857454
  C      10.793154     13.532836      7.543362
  C       9.814199     12.773753      6.903397
  C       8.926950     12.033972      7.670888
  C       9.045194     12.056746      9.067360
  C      10.014533     12.906055      9.613651
  C       7.306968      6.873181     12.396837
  C       6.922478      8.179715     12.720053
  C       6.309817      8.376520     13.966025
  C       6.186626      7.306328     14.844483
  C       6.646381      6.050291     14.448649
  C       6.741480      4.882600     15.297968
  C       7.576416      2.735587     15.607116
  C       8.427602      3.012786     16.687305
  C       8.868118      1.984187     17.514346
  C       8.462552      0.671397     17.276314
  C       7.608174      0.394730     16.208452
  C       7.173301      1.415490     15.368848
  C       7.263229      9.246426     11.765937
  C       7.389374      8.958790     10.397662
  C       7.906866      9.893116      9.516673
  C       8.306410     11.158331      9.967205
  C       8.092226     11.479176     11.317620
  C       7.583444     10.539206     12.202862
  H       9.967644     16.097759      7.350643
  H       9.626581     17.981753      5.775911
  H      10.363973     20.276509      6.391339
  H      11.419136     20.683733      8.613235
  H      11.796202     18.789515     10.178553
  H       9.924899     17.080651     11.188678
  H       9.598933     15.782232     13.408843
  H      10.211767     13.806123     14.813625
  H      13.016551     12.669040     11.738321
  H      12.155340     13.122149     15.991046
  H      12.849355     12.346648     18.194771
  H      13.725334     10.538816     19.652212
  H      14.133026      8.270848     18.704458
  H      13.689341      7.798436     16.327433
  H      15.131856      9.973038     13.749114
  H      17.491792      9.378515     13.319455
  H      18.146333      7.005987     12.920115
  H      16.405538      5.239541     12.849435
  H      14.063603      4.584582     13.007409
  H       9.739262      5.946770     13.049589
  H      12.871967      3.254518     14.296200
  H      11.296926      1.363520     13.913492
  H       9.082296      0.622427     12.695092
  H       8.426924      0.722537     10.295265
  H       7.057309     -0.789408      8.885711
  H       4.644500     -1.136231      9.403512
  H       3.626860      0.005557     11.368221
  H       4.985622      1.503365     12.782041
  H      12.983072     16.628752     12.247997
  H      13.262986     18.915001     13.164953
  H      14.597642     20.607996     11.918338
  H      15.706945     19.972633      9.779738
  H      15.414813     17.694059      8.855009
  H      16.014486     15.486088      9.661672
  H      16.902185     13.225339      8.788014
  H      16.473635     10.780840      8.580593
  H      12.316243     11.564460      9.381032
  H      16.089839      9.123715      9.949589
  H      17.130480      6.938041     10.206514
  H      16.975687      4.463081     10.089084
  H      14.820029      3.385717      9.452344
  H      12.868031      4.758441      8.821714
  H      13.686751      7.551658      6.309684
  H      13.851070      6.975588      3.917000
  H      12.071666      5.631100      2.805532
  H      10.105188      4.863664      4.109852
  H       8.937032      4.692290      6.241812
  H       9.453450      4.659647     10.672296
  H       6.992862      5.261607      7.181375
  H       5.040907      4.485187      8.523073
  H       4.086310      4.139788     10.882363
  H       4.827698      2.535977     14.703455
  H       2.973547      2.946785     16.275322
  H       1.436097      4.876137     15.934661
  H       1.759483      6.381648     13.973663
  H       3.622815      5.975854     12.390332
  H      14.484750     13.763266      6.113372
  H      16.328202     14.875045      4.864646
  H      16.555632     17.354594      4.928785
  H      14.919191     18.713246      6.224927
  H      13.097418     17.606541      7.493088
  H      11.889212     14.254278      5.763070
  H       9.764357     12.759955      5.813372
  H       8.149361     11.441877      7.184827
  H      10.130722     12.960539     10.694477
  H       7.805544      6.669745     11.449633
  H       5.934929      9.360660     14.254028
  H       5.737641      7.435058     15.830657
  H       6.516115      4.955762     16.368777
  H       8.764059      4.037790     16.862210
  H       9.529860      2.210273     18.353405
  H       8.805739     -0.136167     17.926905
  H       7.270474     -0.628291     16.028862
  H       6.504717      1.183436     14.541113
  H       7.093030      7.983162     10.009428
  H       8.040709      9.613105      8.470260
  H       8.327542     12.477801     11.691400
  H       7.473953     10.805856     13.256144
  H      10.512586      6.834293     14.946531
  H      11.226789      7.161870     10.310777
  H      11.409634     10.949499     12.024650
  H      11.290946      9.054136      7.796654
