230
Coordinates from ORCA-job _fe7ll E -8176.806890599214
  Fe     12.347673     14.731930      9.576205
  Fe      7.362657      3.970164     12.724975
  O      11.927453     10.482486     12.672894
  O      10.736732      7.451338     14.448275
  N      11.241161     16.298429      9.858661
  N      11.945134     14.367430     11.453270
  N       9.287782      3.974438     13.043776
  N       7.667730      2.094869     12.281448
  C      11.015527     17.398912      8.985255
  C      10.266863     17.229092      7.817607
  C      10.085135     18.303877      6.953661
  C      10.655243     19.545085      7.241466
  C      11.381386     19.715664      8.418337
  C      11.556142     18.649284      9.299743
  C      10.735600     16.342791     11.034439
  C      11.065193     15.267840     11.942664
  C      10.548001     15.168798     13.230947
  C      10.937059     14.099802     14.025598
  C      11.852945     13.157667     13.535981
  C      12.334913     13.355487     12.226767
  C      12.307845     12.054265     14.402541
  C      12.636000     12.332117     15.715804
  C      13.076016     11.327300     16.601780
  C      13.424289     11.627644     17.943462
  C      13.848931     10.634402     18.792423
  C      13.935027      9.302734     18.329166
  C      13.606877      8.982944     17.030550
  C      13.171793      9.984563     16.127313
  C      12.816350      9.685707     14.771839
  C      12.394383     10.705714     13.935502
  C      12.806864      9.935485     11.717042
  C      13.031887      8.286697     14.292000
  C      14.401292      7.959389     13.989331
  C      15.445330      8.915813     14.067540
  C      16.749235      8.564925     13.790770
  C      17.085279      7.244904     13.421892
  C      16.092792      6.301617     13.311156
  C      14.743670      6.639288     13.584749
  C      13.718244      5.680327     13.487296
  C      12.401159      5.959362     13.796393
  C      12.054413      7.302050     14.197480
  C      10.174964      8.571394     15.092721
  C      10.086458      5.000222     13.321895
  C      11.434740      4.845036     13.700098
  C      11.868656      3.522012     13.906570
  C      11.042319      2.452015     13.601021
  C       9.758709      2.714023     13.128796
  C       8.850504      1.714149     12.618469
  C       6.879588      1.211692     11.503087
  C       7.451092      0.611963     10.371505
  C       6.703380     -0.265550      9.592450
  C       5.382966     -0.554636      9.933768
  C       4.810968      0.047255     11.054935
  C       5.547321      0.937297     11.830955
  O      11.989232      9.710182      7.805480
  O      10.206757      6.916318      9.620465
  N      14.004789     15.678961      9.994711
  N      13.553818     13.201173      9.290370
  N       7.460114      4.334457     10.809777
  N       5.426865      3.975879     12.393603
  C      14.229351     16.973963     10.529560
  C      13.721015     17.296781     11.792017
  C      13.962284     18.556259     12.332629
  C      14.698375     19.503139     11.618209
  C      15.220821     19.171674     10.369253
  C      14.997681     17.908664      9.827406
  C      15.026955     15.007425      9.606027
  C      14.823580     13.644300      9.182064
  C      15.861414     12.811781      8.773162
  C      15.589137     11.472122      8.551177
  C      14.294297     10.968305      8.761497
  C      13.294686     11.912093      9.071848
  C      14.090678      9.504033      8.775999
  C      15.102477      8.741435      9.323780
  C      15.047966      7.334918      9.378793
  C      16.118766      6.579188      9.917003
  C      16.060542      5.206560      9.940452
  C      14.914125      4.551278      9.444039
  C      13.859516      5.265204      8.916854
  C      13.897300      6.681801      8.856327
  C      12.818700      7.458107      8.300536
  C      12.916236      8.844675      8.267405
  C      10.914990      9.319380      6.980948
  C      11.706057      6.638600      7.732904
  C      11.921263      6.056646      6.440103
  C      13.070053      6.351459      5.664397
  C      13.241155      5.788408      4.419083
  C      12.280265      4.901736      3.885226
  C      11.156360      4.593893      4.612909
  C      10.953778      5.159829      5.897313
  C       9.819225      4.839774      6.669626
  C       9.617461      5.373867      7.927039
  C      10.566013      6.312440      8.449863
  C      11.100007      6.932982     10.712992
  C       8.516896      4.663869     10.075227
  C       8.436798      4.954719      8.700613
  C       7.187313      4.785716      8.087286
  C       6.088129      4.408350      8.846153
  C       6.251835      4.227097     10.217709
  C       5.154546      4.054854     11.138013
  C       4.357276      4.158940     13.306449
  C       4.158177      3.305328     14.397029
  C       3.090909      3.523643     15.263185
  C       2.232571      4.607254     15.071681
  C       2.442379      5.473375     13.999666
  C       3.497648      5.251929     13.120418
  N      12.543908     15.043169      7.641278
  N      10.817277     13.690038      9.003778
  N       7.128945      5.829700     13.183331
  N       7.196816      3.730215     14.662604
  C      13.596345     15.652677      6.899623
  C      14.424846     14.842483      6.113791
  C      15.434950     15.420196      5.348675
  C      15.607416     16.803557      5.350428
  C      14.771626     17.604902      6.129244
  C      13.771531     17.037386      6.914976
  C      11.635841     14.455028      6.952126
  C      10.622968     13.718968      7.670765
  C       9.556483     13.055303      7.065471
  C       8.708140     12.289414      7.852985
  C       8.958045     12.185648      9.227691
  C      10.016848     12.940497      9.749291
  C       7.250961      6.880238     12.387157
  C       6.925779      8.183104     12.782881
  C       6.395886      8.351592     14.070469
  C       6.288963      7.253154     14.914274
  C       6.694555      6.001929     14.447313
  C       6.806713      4.807082     15.252787
  C       7.609137      2.646564     15.475872
  C       8.501013      2.892426     16.530467
  C       8.924598      1.848605     17.346582
  C       8.459501      0.553082     17.123429
  C       7.580985      0.305218     16.067770
  C       7.167221      1.340455     15.235208
  C       7.250634      9.283286     11.864436
  C       7.267365      9.073235     10.477206
  C       7.760002     10.041929      9.619273
  C       8.252117     11.255307     10.118780
  C       8.163289     11.496276     11.498288
  C       7.670603     10.526391     12.357050
  H       9.791064     16.270660      7.609571
  H       9.482828     18.176079      6.051617
  H      10.517095     20.382458      6.553807
  H      11.814316     20.688738      8.660700
  H      12.132641     18.777757     10.217113
  H      10.091599     17.169423     11.359847
  H       9.842442     15.918294     13.594715
  H      10.522189     13.983878     15.029049
  H      13.069929     12.674346     11.797594
  H      12.595207     13.361829     16.079717
  H      13.349337     12.661228     18.290665
  H      14.117467     10.869068     19.824126
  H      14.270688      8.518514     19.011304
  H      13.683271      7.949289     16.689874
  H      13.115674      8.910985     11.961633
  H      13.716189     10.550790     11.608150
  H      12.260900      9.925259     10.767233
  H      15.218524      9.938442     14.369758
  H      17.538229      9.315627     13.877802
  H      18.127634      6.978522     13.234549
  H      16.328867      5.274095     13.026239
  H      13.992786      4.683020     13.139270
  H      10.168442      9.450530     14.432994
  H      10.700139      8.808704     16.027829
  H       9.140542      8.288503     15.327924
  H       9.657024      5.993860     13.230441
  H      12.866854      3.329263     14.302626
  H      11.383314      1.422316     13.724511
  H       9.192124      0.682761     12.466862
  H       8.478094      0.857908     10.090611
  H       7.157038     -0.727593      8.712867
  H       4.798264     -1.249021      9.326055
  H       3.780316     -0.183282     11.333155
  H       5.089018      1.397258     12.704648
  H      13.184899     16.546177     12.371279
  H      13.584957     18.797822     13.328482
  H      14.878507     20.492835     12.043738
  H      15.814018     19.899951      9.811809
  H      15.398410     17.653298      8.845952
  H      16.044935     15.411923      9.669984
  H      16.867232     13.215219      8.642488
  H      16.387594     10.804000      8.223335
  H      12.257916     11.593966      9.167808
  H      15.980315      9.232747      9.748747
  H      16.995435      7.106967     10.298598
  H      16.897105      4.622914     10.330340
  H      14.869139      3.459735      9.460479
  H      12.994685      4.730177      8.524225
  H      11.254479      8.699573      6.139864
  H      10.145878      8.779359      7.551813
  H      10.489365     10.250891      6.587004
  H      13.825801      7.031364      6.060357
  H      14.134657      6.024683      3.837011
  H      12.434770      4.462961      2.897799
  H      10.405802      3.907382      4.213186
  H       9.111476      4.109192      6.270344
  H      11.434914      5.915667     10.974548
  H      11.988159      7.543398     10.518215
  H      10.552673      7.368225     11.559055
  H       9.473648      4.708232     10.594950
  H       7.071541      4.982805      7.019310
  H       5.101834      4.292291      8.392890
  H       4.121385      4.070344     10.769363
  H       4.821726      2.458401     14.564240
  H       2.926251      2.836941     16.096468
  H       1.401082      4.776395     15.759671
  H       1.780370      6.328493     13.845609
  H       3.678941      5.945349     12.295626
  H      14.278849     13.759397      6.111381
  H      16.082150     14.787234      4.737273
  H      16.387203     17.258923      4.735413
  H      14.891758     18.690817      6.120238
  H      13.111020     17.666694      7.510286
  H      11.622146     14.496588      5.855850
  H       9.407136     13.134958      5.986639
  H       7.863095     11.769097      7.397872
  H      10.250517     12.878302     10.810656
  H       7.672585      6.698151     11.398553
  H       6.074013      9.336803     14.415178
  H       5.903121      7.358168     15.930141
  H       6.629307      4.846153     16.334218
  H       8.886659      3.902629     16.687198
  H       9.624270      2.048344     18.161350
  H       8.784516     -0.265746     17.769404
  H       7.211970     -0.707419     15.890017
  H       6.486072      1.130156     14.412203
  H       6.907349      8.133236     10.055886
  H       7.808225      9.825258      8.550381
  H       8.495581     12.448546     11.916114
  H       7.660221     10.723591     13.431134
230
Coordinates from ORCA-job _fe7ll E -8176.806893902363
  Fe     12.347761     14.731839      9.576278
  Fe      7.362755      3.970142     12.724879
  O      11.927311     10.482500     12.672917
  O      10.736698      7.451194     14.448143
  N      11.241043     16.298453      9.858654
  N      11.945159     14.367435     11.453172
  N       9.287699      3.974407     13.043791
  N       7.667772      2.094798     12.281509
  C      11.015580     17.398929      8.985178
  C      10.266826     17.229080      7.817567
  C      10.085132     18.303874      6.953634
  C      10.655276     19.545034      7.241502
  C      11.381392     19.715658      8.418344
  C      11.556115     18.649323      9.299753
  C      10.735596     16.342839     11.034506
  C      11.065185     15.267806     11.942644
  C      10.548003     15.168804     13.230938
  C      10.937024     14.099741     14.025542
  C      11.852905     13.157610     13.535930
  C      12.334842     13.355492     12.226701
  C      12.307843     12.054231     14.402577
  C      12.636139     12.332184     15.715797
  C      13.075857     11.327296     16.601837
  C      13.424374     11.627649     17.943453
  C      13.848815     10.634436     18.792529
  C      13.935097      9.302802     18.329189
  C      13.606730      8.982969     17.030602
  C      13.171913      9.984617     16.127233
  C      12.816240      9.685691     14.771822
  C      12.394447     10.705726     13.935470
  C      12.806824      9.935508     11.717051
  C      13.031855      8.286767     14.291890
  C      14.401280      7.959368     13.989363
  C      15.445302      8.915824     14.067445
  C      16.749253      8.564906     13.790857
  C      17.085296      7.244919     13.421816
  C      16.092807      6.301597     13.311256
  C      14.743640      6.639284     13.584640
  C      13.718269      5.680256     13.487326
  C      12.401209      5.959359     13.796408
  C      12.054466      7.302049     14.197406
  C      10.174961      8.571355     15.092734
  C      10.086400      5.000211     13.321895
  C      11.434704      4.845061     13.700094
  C      11.868619      3.522029     13.906484
  C      11.042278      2.452007     13.600998
  C       9.758626      2.714016     13.128759
  C       8.850455      1.714142     12.618512
  C       6.879543      1.211737     11.503064
  C       7.451085      0.611967     10.371500
  C       6.703361     -0.265537      9.592456
  C       5.382979     -0.554612      9.933863
  C       4.810952      0.047313     11.054978
  C       5.547279      0.937353     11.830984
  O      11.989291      9.710294      7.805603
  O      10.206643      6.916384      9.620410
  N      14.004780     15.679011      9.994658
  N      13.553826     13.201184      9.290362
  N       7.460151      4.334417     10.809891
  N       5.426800      3.975940     12.393556
  C      14.229364     16.973975     10.529572
  C      13.720994     17.296794     11.792032
  C      13.962226     18.556256     12.332673
  C      14.698327     19.503081     11.618217
  C      15.220780     19.171682     10.369249
  C      14.997679     17.908675      9.827375
  C      15.026981     15.007446      9.606033
  C      14.823597     13.644317      9.182091
  C      15.861410     12.811786      8.773179
  C      15.589090     11.472115      8.551222
  C      14.294230     10.968309      8.761468
  C      13.294645     11.912117      9.071820
  C      14.090720      9.504018      8.776021
  C      15.102570      8.741474      9.323747
  C      15.047956      7.334967      9.378897
  C      16.118813      6.579161      9.916899
  C      16.060497      5.206536      9.940578
  C      14.914146      4.551262      9.444002
  C      13.859480      5.265246      8.916968
  C      13.897339      6.681845      8.856265
  C      12.818620      7.458128      8.300607
  C      12.916274      8.844677      8.267486
  C      10.915047      9.319407      6.980913
  C      11.705948      6.638719      7.732875
  C      11.921274      6.056556      6.440163
  C      13.069957      6.351518      5.664305
  C      13.241189      5.788260      4.419071
  C      12.280214      4.901733      3.885125
  C      11.156433      4.593800      4.612939
  C      10.953654      5.159967      5.897211
  C       9.819262      4.839625      6.669642
  C       9.617477      5.373822      7.927018
  C      10.566012      6.312343      8.449893
  C      11.099962      6.932979     10.712988
  C       8.516885      4.663899     10.075297
  C       8.436840      4.954734      8.700677
  C       7.187365      4.785805      8.087357
  C       6.088154      4.408322      8.846148
  C       6.251899      4.227136     10.217773
  C       5.154590      4.054789     11.138025
  C       4.357250      4.159008     13.306536
  C       4.158182      3.305330     14.397099
  C       3.090962      3.523696     15.263254
  C       2.232623      4.607251     15.071654
  C       2.442427      5.473410     13.999703
  C       3.497617      5.251980     13.120400
  N      12.543893     15.043105      7.641263
  N      10.817314     13.690026      9.003770
  N       7.128969      5.829670     13.183290
  N       7.196813      3.730297     14.662603
  C      13.596453     15.652688      6.899731
  C      14.424874     14.842453      6.113786
  C      15.434950     15.420230      5.348664
  C      15.607392     16.803557      5.350500
  C      14.771672     17.604924      6.129252
  C      13.771618     17.037440      6.915015
  C      11.635782     14.455017      6.952088
  C      10.622984     13.718935      7.670744
  C       9.556512     13.055338      7.065453
  C       8.708184     12.289400      7.852940
  C       8.958051     12.185589      9.227672
  C      10.016865     12.940470      9.749257
  C       7.250984      6.880253     12.387147
  C       6.925765      8.183155     12.782836
  C       6.395944      8.351570     14.070451
  C       6.288970      7.253143     14.914255
  C       6.694571      6.001909     14.447253
  C       6.806674      4.807100     15.252733
  C       7.609206      2.646497     15.475846
  C       8.501049      2.892418     16.530527
  C       8.924605      1.848520     17.346575
  C       8.459524      0.553059     17.123331
  C       7.581055      0.305163     16.067740
  C       7.167280      1.340345     15.235173
  C       7.250624      9.283353     11.864402
  C       7.267349      9.073284     10.477200
  C       7.760007     10.041937      9.619300
  C       8.252120     11.255264     10.118851
  C       8.163260     11.496246     11.498337
  C       7.670591     10.526401     12.357071
  H       9.791043     16.270611      7.609538
  H       9.482876     18.176108      6.051560
  H      10.517108     20.382420      6.553932
  H      11.814311     20.688701      8.660690
  H      12.132606     18.777817     10.217107
  H      10.091528     17.169417     11.359771
  H       9.842390     15.918309     13.594729
  H      10.522291     13.983842     15.029034
  H      13.069902     12.674360     11.797670
  H      12.595156     13.361887     16.079757
  H      13.349388     12.661170     18.290718
  H      14.117533     10.869088     19.824195
  H      14.270750      8.518512     19.011296
  H      13.683401      7.949316     16.689856
  H      13.115748      8.910951     11.961599
  H      13.716309     10.550749     11.608188
  H      12.260843      9.925236     10.767191
  H      15.218557      9.938442     14.369803
  H      17.538244      9.315640     13.877871
  H      18.127675      6.978498     13.234523
  H      16.328917      5.274120     13.026221
  H      13.992803      4.682962     13.139290
  H      10.168447      9.450654     14.433002
  H      10.700184      8.808846     16.027958
  H       9.140420      8.288477     15.327938
  H       9.657143      5.993910     13.230449
  H      12.866849      3.329315     14.302538
  H      11.383302      1.422324     13.724499
  H       9.192137      0.682723     12.466929
  H       8.478104      0.857877     10.090567
  H       7.157004     -0.727585      8.712852
  H       4.798309     -1.248962      9.326139
  H       3.780323     -0.183294     11.333151
  H       5.088929      1.397275     12.704677
  H      13.184920     16.546186     12.371299
  H      13.584914     18.797872     13.328519
  H      14.878527     20.492733     12.043735
  H      15.813977     19.899996      9.811817
  H      15.398471     17.653386      8.845897
  H      16.044930     15.411948      9.669958
  H      16.867258     13.215200      8.642466
  H      16.387504     10.803929      8.223360
  H      12.257908     11.593883      9.167797
  H      15.980366      9.232805      9.748748
  H      16.995414      7.106929     10.298635
  H      16.897132      4.622915     10.330362
  H      14.869171      3.459705      9.460372
  H      12.994725      4.730190      8.524168
  H      11.254448      8.699420      6.139745
  H      10.145817      8.779290      7.551732
  H      10.489332     10.250993      6.586984
  H      13.825834      7.031278      6.060354
  H      14.134657      6.024676      3.836965
  H      12.434757      4.462932      2.897711
  H      10.405881      3.907387      4.213143
  H       9.111400      4.109173      6.270321
  H      11.435009      5.915604     10.974505
  H      11.988238      7.543379     10.518314
  H      10.552641      7.368291     11.559104
  H       9.473644      4.708311     10.594877
  H       7.071580      4.982863      7.019380
  H       5.101787      4.292293      8.392912
  H       4.121367      4.070385     10.769399
  H       4.821765      2.458411     14.564286
  H       2.926247      2.836964     16.096455
  H       1.401136      4.776326     15.759584
  H       1.780370      6.328448     13.845633
  H       3.678892      5.945422     12.295593
  H      14.278817     13.759302      6.111388
  H      16.082112     14.787239      4.737278
  H      16.387144     17.258873      4.735592
  H      14.891696     18.690786      6.120188
  H      13.110994     17.666689      7.510270
  H      11.622194     14.496635      5.855875
  H       9.407143     13.135006      5.986649
  H       7.863082     11.769083      7.397934
  H      10.250469     12.878261     10.810666
  H       7.672661      6.698148     11.398576
  H       6.074073      9.336781     14.415139
  H       5.903097      7.358113     15.930101
  H       6.629325      4.846126     16.334240
  H       8.886693      3.902729     16.687224
  H       9.624184      2.048364     18.161369
  H       8.784460     -0.265635     17.769304
  H       7.211916     -0.707350     15.890091
  H       6.486093      1.130134     14.412154
  H       6.907342      8.133313     10.055891
  H       7.808205      9.825308      8.550425
  H       8.495479     12.448527     11.916044
  H       7.660205     10.723587     13.431103
