230
Coordinates from ORCA-job _fe7dd E -8176.810387559901
  Fe     12.080270     15.081005     10.835137
  Fe      7.191994      3.999379     12.692212
  O      13.018627     10.439065     13.254342
  O      10.754497      8.646746     15.638793
  N      10.678342     15.999138      9.824681
  N      11.873554     13.732828      9.458144
  N       8.767043      3.605242     11.606642
  N       7.757523      2.415750     13.684185
  C       9.819642     17.041559     10.249588
  C       8.432200     16.841395     10.204020
  C       7.564906     17.845869     10.621457
  C       8.071269     19.059060     11.085983
  C       9.451477     19.256585     11.141295
  C      10.324111     18.250657     10.740219
  C      10.399512     15.392621      8.723560
  C      11.070134     14.141441      8.457746
  C      10.840041     13.348990      7.332092
  C      11.416201     12.088280      7.268832
  C      12.229591     11.645396      8.323744
  C      12.441833     12.533499      9.387741
  C      14.340376     11.866280     14.666131
  C      14.922755     12.097672     15.897544
  C      14.860415     11.146374     16.939404
  C      15.431087     11.401537     18.212208
  C      15.383000     10.449663     19.202180
  C      14.763638      9.203995     18.956593
  C      14.198744      8.927944     17.731815
  C      14.228440      9.889664     16.692247
  C      13.643288      9.643767     15.412091
  C      13.670874     10.625788     14.441338
  C      13.758350      9.833725     12.210395
  C      13.119794      8.283370     15.102896
  C      14.100773      7.317709     14.687780
  C      15.474003      7.650315     14.557513
  C      16.394791      6.714038     14.142972
  C      16.001703      5.391653     13.843881
  C      14.681949      5.031958     13.975256
  C      13.712762      5.977934     14.394072
  C      12.355618      5.625330     14.542622
  C      11.412562      6.534410     14.964599
  C      11.797432      7.890686     15.246168
  C      10.800986     10.041685     15.823410
  C       9.276332      4.293002     10.589549
  C      10.273980      3.777668      9.744012
  C      10.700659      2.463391      9.981164
  C      10.187500      1.753521     11.058418
  C       9.231644      2.364602     11.866554
  C       8.703013      1.785508     13.080247
  C       7.440164      2.030686     15.010670
  C       8.482063      1.877158     15.936419
  C       8.205032      1.499865     17.246596
  C       6.888812      1.271871     17.645204
  C       5.850302      1.433087     16.727517
  C       6.117970      1.824003     15.419186
  O      10.802290      9.425521      7.812236
  O      11.133109      6.466156     10.093828
  N      13.574001     15.737064      9.764524
  N      13.486756     14.138324     11.809360
  N       8.147042      5.011403     14.040972
  N       5.638893      4.409957     13.811608
  C      13.567589     16.280945      8.455427
  C      12.829710     17.427642      8.142730
  C      12.866817     17.945684      6.852209
  C      13.613335     17.313872      5.857232
  C      14.329446     16.157022      6.160281
  C      14.308411     15.640719      7.452204
  C      14.709355     15.432724     10.287285
  C      14.704154     14.622519     11.483551
  C      15.844654     14.300129     12.215213
  C      15.723588     13.420241     13.282346
  C      14.475447     12.857783     13.584634
  C      13.375728     13.278216     12.816664
  C      12.862146     10.316317      8.366174
  C      14.194591     10.204590      8.690314
  C      14.839700      8.952103      8.754984
  C      16.217975      8.844697      9.068454
  C      16.832336      7.616391      9.116766
  C      16.082773      6.452610      8.840242
  C      14.743758      6.530008      8.528497
  C      14.075001      7.780476      8.481932
  C      12.675225      7.882887      8.169163
  C      12.084432      9.135955      8.105051
  C       9.782457      8.466963      7.663717
  C      11.986493      6.595118      7.871203
  C      12.101668      6.030650      6.563153
  C      12.715471      6.726119      5.492606
  C      12.799729      6.153590      4.243363
  C      12.277031      4.863493      4.002094
  C      11.678692      4.162429      5.021261
  C      11.577496      4.724496      6.319205
  C      10.988437      4.013337      7.387270
  C      10.854417      4.569424      8.645086
  C      11.344736      5.891163      8.871470
  C      12.149713      6.290843     11.063068
  C       9.421419      5.387566     14.042129
  C      10.005395      6.119291     15.086422
  C       9.198401      6.409719     16.197752
  C       7.874173      5.996013     16.207504
  C       7.369987      5.316885     15.097664
  C       5.976251      4.990347     14.910562
  C       4.263826      4.369680     13.476646
  C       3.662329      3.202547     12.994088
  C       2.305169      3.195464     12.689500
  C       1.541227      4.353873     12.835151
  C       2.143014      5.525892     13.291376
  C       3.496909      5.536326     13.611165
  N      12.224020     16.394701     12.284998
  N      10.617637     14.410728     11.909831
  N       6.665565      5.570301     11.689773
  N       6.214219      3.060513     11.274115
  C      13.323287     17.220637     12.623991
  C      13.884362     18.104514     11.694957
  C      14.959072     18.907333     12.061943
  C      15.501750     18.819536     13.344219
  C      14.960615     17.922221     14.264343
  C      13.876157     17.126518     13.909822
  C      11.254872     16.299883     13.127796
  C      10.292612     15.241147     12.920458
  C       9.166300     15.024491     13.715188
  C       8.372385     13.911907     13.465815
  C       8.721195     13.037424     12.427874
  C       9.857789     13.349604     11.671869
  C       6.968899      6.836983     11.943752
  C       6.409580      7.911640     11.241411
  C       5.472180      7.618257     10.241951
  C       5.151363      6.292976      9.977810
  C       5.774701      5.288488     10.718464
  C       5.599539      3.873177     10.486690
  C       6.293436      1.699302     10.892094
  C       6.637713      1.382197      9.569632
  C       6.723216      0.053221      9.168310
  C       6.464336     -0.970860     10.078547
  C       6.134290     -0.657687     11.397495
  C       6.062284      0.668548     11.810488
  C       6.873745      9.274814     11.550223
  C       7.212351     10.157210     10.516404
  C       7.778968     11.391758     10.801081
  C       8.000656     11.788199     12.127856
  C       7.605560     10.930469     13.162703
  C       7.062122      9.685153     12.877592
  H       8.037095     15.881077      9.864519
  H       6.485807     17.680617     10.582906
  H       7.391626     19.851133     11.407968
  H       9.855833     20.206389     11.497937
  H      11.397947     18.417882     10.793972
  H       9.633910     15.767108      8.032443
  H      10.201994     13.719904      6.527338
  H      11.239821     11.441749      6.408985
  H      13.061991     12.237285     10.234988
  H      15.431489     13.046275     16.087616
  H      15.911640     12.365640     18.394180
  H      15.826619     10.649328     20.179471
  H      14.734759      8.454175     19.750206
  H      13.726119      7.961060     17.551432
  H      14.619635     10.457370     11.913786
  H      14.129564      8.840060     12.501327
  H      13.080821      9.728162     11.353352
  H      15.805481      8.660856     14.797826
  H      17.446961      6.995063     14.057384
  H      16.748158      4.660442     13.526961
  H      14.362912      4.006269     13.772424
  H      12.059370      4.591972     14.345940
  H      11.087162     10.555172     14.893321
  H      11.482072     10.330779     16.636706
  H       9.778520     10.330744     16.102182
  H       8.886780      5.297897     10.428322
  H      11.464373      2.016215      9.340757
  H      10.527817      0.741060     11.284535
  H       9.141201      0.866507     13.489654
  H       9.509912      2.081654     15.627826
  H       9.023094      1.383037     17.960506
  H       6.670259      0.968600     18.671430
  H       4.817560      1.250182     17.032334
  H       5.295866      1.945992     14.715868
  H      12.241631     17.931964      8.907234
  H      12.307750     18.855511      6.623462
  H      13.635941     17.724738      4.845510
  H      14.910658     15.652752      5.385520
  H      14.848155     14.720271      7.686703
  H      15.659658     15.729229      9.825347
  H      16.810461     14.727153     11.937504
  H      16.603882     13.133468     13.862124
  H      12.377938     12.897622     13.034006
  H      14.784076     11.107207      8.869857
  H      16.786828      9.758721      9.257902
  H      17.895627      7.535831      9.351511
  H      16.574971      5.477589      8.861459
  H      14.189962      5.617770      8.305271
  H       9.973077      7.783894      6.823775
  H       9.643235      7.891881      8.591536
  H       8.872264      9.042295      7.446363
  H      13.127406      7.721358      5.667880
  H      13.275875      6.699722      3.426307
  H      12.354627      4.426448      3.004611
  H      11.274186      3.163375      4.843144
  H      10.612215      3.005126      7.195758
  H      11.816777      6.801760     11.975396
  H      13.103800      6.727424     10.732564
  H      12.310913      5.222154     11.287488
  H      10.003709      5.139924     13.153336
  H       9.612820      6.957912     17.043800
  H       7.221121      6.209064     17.056402
  H       5.232812      5.292849     15.658586
  H       4.246038      2.292281     12.873057
  H       1.839116      2.272476     12.337989
  H       0.477085      4.342140     12.589325
  H       1.553647      6.439084     13.400282
  H       3.975720      6.461132     13.941611
  H      13.476326     18.181352     10.688654
  H      15.374117     19.611398     11.337510
  H      16.348373     19.450263     13.624075
  H      15.385293     17.843003     15.267267
  H      13.471599     16.401044     14.619512
  H      11.178066     16.955022     14.004008
  H       8.921373     15.725195     14.515868
  H       7.476390     13.730580     14.063914
  H      10.176981     12.689177     10.864816
  H       7.716669      7.018118     12.717329
  H       4.984332      8.423464      9.687857
  H       4.422498      6.029646      9.208638
  H       5.003334      3.521432      9.636138
  H       6.870455      2.184580      8.865641
  H       6.991903     -0.185083      8.137010
  H       6.522153     -2.014773      9.762359
  H       5.926570     -1.454890     12.114486
  H       5.810336      0.896426     12.844889
  H       7.073463      9.855626      9.475702
  H       8.055084     12.055449      9.978482
  H       7.767270     11.221268     14.203231
  H       6.781190      9.022411     13.699541
230
Coordinates from ORCA-job _fe7dd E -8176.810406772642
  Fe     12.080471     15.081011     10.834971
  Fe      7.192149      3.999241     12.692350
  O      13.018381     10.439254     13.254346
  O      10.754447      8.646779     15.638815
  N      10.678391     15.999240      9.824719
  N      11.873390     13.732837      9.458162
  N       8.766959      3.605163     11.606476
  N       7.757565      2.415661     13.684137
  C       9.819604     17.041582     10.249596
  C       8.432119     16.841409     10.204046
  C       7.564902     17.845959     10.621465
  C       8.071329     19.059064     11.086036
  C       9.451494     19.256607     11.141327
  C      10.324136     18.250650     10.740328
  C      10.399408     15.392607      8.723544
  C      11.070142     14.141542      8.457576
  C      10.839928     13.348969      7.332198
  C      11.416178     12.088330      7.268897
  C      12.229668     11.645512      8.323767
  C      12.441853     12.533598      9.387845
  C      14.340197     11.866295     14.666197
  C      14.922808     12.097705     15.897517
  C      14.860836     11.146290     16.939323
  C      15.431014     11.401593     18.212365
  C      15.383141     10.449582     19.202236
  C      14.763494      9.204031     18.956670
  C      14.198871      8.927934     17.731724
  C      14.228310      9.889788     16.692240
  C      13.642998      9.643783     15.412136
  C      13.670957     10.625636     14.441271
  C      13.758271      9.833748     12.210428
  C      13.119747      8.283426     15.102721
  C      14.100765      7.317664     14.687665
  C      15.474022      7.650328     14.557378
  C      16.394839      6.714001     14.142971
  C      16.001772      5.391675     13.843820
  C      14.682052      5.031926     13.975167
  C      13.712775      5.977803     14.394044
  C      12.355547      5.625254     14.542696
  C      11.412561      6.534480     14.964694
  C      11.797433      7.890806     15.246246
  C      10.800937     10.041612     15.823409
  C       9.276391      4.293101     10.589528
  C      10.273922      3.777563      9.743954
  C      10.700630      2.463289      9.981322
  C      10.187355      1.753484     11.058538
  C       9.231661      2.364652     11.866697
  C       8.703011      1.785486     13.080235
  C       7.440148      2.030795     15.010647
  C       8.482088      1.877110     15.936388
  C       8.205004      1.499915     17.246613
  C       6.888754      1.271837     17.645117
  C       5.850240      1.433200     16.727471
  C       6.117940      1.824042     15.419133
  O      10.802218      9.425544      7.812241
  O      11.132812      6.466201     10.093849
  N      13.574032     15.737119      9.764497
  N      13.486785     14.138407     11.809566
  N       8.146894      5.011497     14.040944
  N       5.638911      4.409885     13.811613
  C      13.567508     16.280873      8.455465
  C      12.829660     17.427615      8.142784
  C      12.866701     17.945649      6.852252
  C      13.613330     17.313920      5.857319
  C      14.329397     16.157001      6.160265
  C      14.308462     15.640718      7.452240
  C      14.709516     15.432748     10.287287
  C      14.704183     14.622471     11.483443
  C      15.844544     14.300255     12.215068
  C      15.723637     13.420336     13.282179
  C      14.475472     12.857879     13.584683
  C      13.375695     13.278111     12.816700
  C      12.862087     10.316273      8.366085
  C      14.194598     10.204703      8.690248
  C      14.839803      8.952182      8.755003
  C      16.218066      8.844648      9.068548
  C      16.832372      7.616338      9.116832
  C      16.082840      6.452610      8.840246
  C      14.743774      6.529986      8.528630
  C      14.075035      7.780511      8.482040
  C      12.675164      7.882884      8.169328
  C      12.084331      9.135879      8.104983
  C       9.782472      8.467041      7.663729
  C      11.986298      6.595322      7.871187
  C      12.101496      6.030671      6.563181
  C      12.715579      6.726031      5.492695
  C      12.799596      6.153682      4.243302
  C      12.277188      4.863445      4.002033
  C      11.678588      4.162451      5.021115
  C      11.577853      4.724247      6.319258
  C      10.988447      4.013283      7.387293
  C      10.854282      4.569543      8.645037
  C      11.344902      5.891200      8.871522
  C      12.149652      6.290875     11.063041
  C       9.421350      5.387481     14.042009
  C      10.005359      6.119159     15.086410
  C       9.198356      6.409688     16.197688
  C       7.874124      5.996115     16.207437
  C       7.369909      5.316782     15.097764
  C       5.976238      4.990380     14.910454
  C       4.263777      4.369692     13.476630
  C       3.662340      3.202538     12.993962
  C       2.305169      3.195437     12.689462
  C       1.541256      4.353823     12.835094
  C       2.142943      5.525833     13.291366
  C       3.496836      5.536380     13.611135
  N      12.224106     16.394642     12.284860
  N      10.617627     14.410789     11.909829
  N       6.665493      5.570236     11.689802
  N       6.214307      3.060552     11.274239
  C      13.323137     17.220768     12.623961
  C      13.884463     18.104427     11.694875
  C      14.959078     18.907345     12.061895
  C      15.501769     18.819537     13.344130
  C      14.960607     17.922292     14.264325
  C      13.876150     17.126498     13.909787
  C      11.254996     16.299861     13.127945
  C      10.292557     15.241244     12.920521
  C       9.166321     15.024460     13.715154
  C       8.372375     13.911884     13.465751
  C       8.721189     13.037403     12.427797
  C       9.857824     13.349623     11.671830
  C       6.968917      6.836934     11.943797
  C       6.409592      7.911667     11.241483
  C       5.472206      7.618281     10.242028
  C       5.151383      6.293003      9.977818
  C       5.774614      5.288421     10.718465
  C       5.599712      3.873087     10.486649
  C       6.293255      1.699320     10.892142
  C       6.637722      1.382212      9.569662
  C       6.723152      0.053182      9.168330
  C       6.464335     -0.970878     10.078628
  C       6.134277     -0.657693     11.397540
  C       6.062416      0.668522     11.810552
  C       6.873799      9.274864     11.550178
  C       7.212428     10.157239     10.516369
  C       7.779038     11.391736     10.801129
  C       8.000653     11.788129     12.127910
  C       7.605593     10.930394     13.162743
  C       7.062193      9.685122     12.877547
  H       8.036946     15.881083      9.864507
  H       6.485848     17.680601     10.582958
  H       7.391656     19.851063     11.407920
  H       9.855764     20.206417     11.497944
  H      11.398001     18.417898     10.794043
  H       9.634037     15.767137      8.032538
  H      10.202118     13.719840      6.527328
  H      11.239818     11.441793      6.409070
  H      13.062192     12.237047     10.234994
  H      15.431505     13.046358     16.087637
  H      15.911740     12.365654     18.394193
  H      15.826667     10.649384     20.179524
  H      14.734807      8.454077     19.750221
  H      13.726146      7.961027     17.551380
  H      14.619762     10.457388     11.913748
  H      14.129655      8.839896     12.501205
  H      13.080815      9.728038     11.353228
  H      15.805604      8.660874     14.797765
  H      17.446975      6.995021     14.057389
  H      16.748078      4.660388     13.526994
  H      14.362987      4.006278     13.772320
  H      12.059311      4.591796     14.345922
  H      11.087149     10.555084     14.893422
  H      11.482070     10.330816     16.636536
  H       9.778551     10.330881     16.102098
  H       8.886855      5.298096     10.428213
  H      11.464435      2.016301      9.340839
  H      10.527822      0.741149     11.284438
  H       9.141130      0.866523     13.489653
  H       9.510054      2.081573     15.627944
  H       9.023126      1.383043     17.960535
  H       6.670297      0.968607     18.671353
  H       4.817571      1.250087     17.032353
  H       5.295839      1.946009     14.715821
  H      12.241612     17.931957      8.907272
  H      12.307817     18.855552      6.623419
  H      13.635960     17.724675      4.845566
  H      14.910655     15.652708      5.385467
  H      14.848307     14.720219      7.686571
  H      15.659558     15.729259      9.825362
  H      16.810411     14.727076     11.937606
  H      16.603841     13.133370     13.862040
  H      12.377823     12.897433     13.034115
  H      14.784189     11.107365      8.869881
  H      16.786882      9.758664      9.257998
  H      17.895623      7.535930      9.351460
  H      16.575022      5.477614      8.861430
  H      14.190033      5.617670      8.305317
  H       9.973060      7.783858      6.823946
  H       9.643261      7.891921      8.591438
  H       8.872188      9.042178      7.446447
  H      13.127460      7.721358      5.667933
  H      13.275983      6.699752      3.426284
  H      12.354621      4.426373      3.004564
  H      11.274241      3.163289      4.843122
  H      10.612156      3.005068      7.195752
  H      11.816885      6.801839     11.975515
  H      13.104004      6.727438     10.732666
  H      12.311002      5.222039     11.287519
  H      10.004015      5.139934     13.153306
  H       9.612794      6.957875     17.043726
  H       7.221276      6.209000     17.056416
  H       5.232853      5.292738     15.658506
  H       4.246047      2.292225     12.872971
  H       1.839044      2.272513     12.337985
  H       0.477157      4.342150     12.589385
  H       1.553676      6.439060     13.400235
  H       3.975614      6.461235     13.941643
  H      13.476347     18.181364     10.688656
  H      15.374153     19.611459     11.337597
  H      16.348350     19.450222     13.624107
  H      15.385339     17.842964     15.267290
  H      13.471589     16.401076     14.619667
  H      11.178127     16.955086     14.003983
  H       8.921336     15.725158     14.515803
  H       7.476477     13.730505     14.063981
  H      10.176886     12.689005     10.864777
  H       7.716735      7.018301     12.717354
  H       4.984443      8.423456      9.687786
  H       4.422509      6.029700      9.208689
  H       5.003329      3.521337      9.636144
  H       6.870417      2.184572      8.865476
  H       6.991953     -0.185093      8.136978
  H       6.522155     -2.014723      9.762316
  H       5.926545     -1.454952     12.114386
  H       5.810323      0.896410     12.844872
  H       7.073365      9.855666      9.475706
  H       8.055014     12.055447      9.978541
  H       7.767189     11.221315     14.203233
  H       6.781144      9.022484     13.699488
