220
 energy: -348.355302344851 gnorm: 0.000183510219 xtb: 6.4.0 (d4b70c2)
Fe       11.35314450059397   13.93460800933605   10.98118012382735
Fe        7.54289072165417    5.31515239951890   12.52171783217181
O        13.56572909981721    9.86611495410254   13.31109895077592
O        11.46884862892256    8.78322968883715   15.70718493431234
N         9.69453580922433   14.44749671894384   10.13519365506420
N        11.56117350111980   12.88141294706544    9.40959883201529
N         9.00212064293575    4.33784806779418   11.66284660151108
N         7.31384498166312    3.61940125154038   13.47155497226364
C         8.56236771839007   15.01982885640367   10.72031494564892
C         7.29296667828657   14.50494970341953   10.43458350088845
C         6.16751621747326   15.05771518891790   11.01359832754153
C         6.28304579003722   16.13259335020953   11.88153884434876
C         7.53845974626923   16.63741011602401   12.18399776768645
C         8.66965971241896   16.08011494434210   11.61958269294993
C         9.64065326566893   14.07259193396465    8.89977849672505
C        10.66985069854864   13.18741204291534    8.44484541020879
C        10.68758344955226   12.54331392179667    7.20447189487149
C        11.55711357632299   11.49019950766666    7.01307232602904
C        12.41295700685871   11.11114932095055    8.05369117295672
C        12.41045014876437   11.88856482189919    9.20957149693532
C        14.77212968981615   11.61944021331491   14.48737313551409
C        15.45867254747425   12.03099354363842   15.61015511126135
C        15.61559860871284   11.19682548184684   16.72935531090395
C        16.31209621378064   11.62412717468096   17.88117612098177
C        16.44742213324666   10.79424177031053   18.95936908103693
C        15.88601615554767    9.50801124098164   18.93541567298096
C        15.20183981244103    9.06525553166767   17.83438015747429
C        15.05541986246759    9.89086469670810   16.70238709776470
C        14.36878035775494    9.46149300562372   15.53342442312980
C        14.23231101275038   10.30344878783011   14.45400904150737
C        14.43135624574422    9.34684314991279   12.31904874802158
C        13.81164556728312    8.08910932828340   15.44307391641879
C        14.71751149021190    7.01205278058648   15.21516779537965
C        16.11397071227911    7.20709672217807   15.16765870516806
C        16.96388569654086    6.15226648073210   14.96902171414376
C        16.46449707123770    4.85335258897606   14.79285927717518
C        15.11550751238110    4.63359926453821   14.80688515472560
C        14.21434258954276    5.69912354507241   15.01468112969039
C        12.82239595186762    5.49707085579184   15.02658723536165
C        11.96229231314650    6.52826082164669   15.29882505814594
C        12.45780381132204    7.84753011905881   15.51434779918139
C        11.69506736254817    9.88625078326927   16.56119158621344
C         9.77223015112666    4.74843134624417   10.67050338220136
C        10.59382979687919    3.89446593146863    9.92727757244745
C        10.61521857377913    2.54071983435790   10.29142058310612
C         9.83265066520934    2.11067288442204   11.33971632443059
C         9.01751117131622    3.03238234099998   12.00131264226049
C         8.13710494444506    2.70793110689658   13.08063970706575
C         6.60450480519585    3.40059527275192   14.65963925902110
C         7.28710044813360    2.92418565354851   15.78397738392271
C         6.61463091646485    2.70960498913126   16.97107568655709
C         5.25255761216905    2.95426584472613   17.05552347089315
C         4.57047801334008    3.43294885972155   15.94715483288815
C         5.23934882902093    3.66774417229336   14.76078649562308
O        11.20746089876742    8.77567170744350    7.67510586387962
O        11.92068968804351    6.43283655677133    9.98076497670953
N        12.41400773465434   15.25833472959376   10.00524354624833
N        13.09720314206408   13.47762882373710   11.73743218243458
N         8.55008673230797    5.82495380167646   14.05412744888223
N         6.10335275818370    6.18953699611432   13.46679044690043
C        12.04222334101244   15.96164764902238    8.85211346448477
C        10.93039120956572   16.80344707873191    8.83071863466505
C        10.59748103939589   17.48716721838921    7.67673356122001
C        11.34839385783494   17.32473514137992    6.52235007233405
C        12.44053680010254   16.47067036461991    6.52777714654754
C        12.79093966509611   15.79771843726052    7.68181962019629
C        13.66131911166915   15.24266446143015   10.32975130879871
C        14.06228492325746   14.34419635104178   11.36768585204750
C        15.32633231646386   14.33487835497017   11.96249428053116
C        15.58188673771719   13.43993039811402   12.97739887554984
C        14.57813192587221   12.54520528493039   13.37440815249678
C        13.35600075396177   12.60625463981437   12.69666625503370
C        13.23817359782421    9.89949949898098    8.00177039818554
C        14.59285183337365    9.93880182812214    8.20290445520919
C        15.36760663525521    8.76620102754783    8.14600354621463
C        16.77171566596771    8.79923788396442    8.28018568481094
C        17.50487582665587    7.64684625873778    8.22828469902778
C        16.85890899062138    6.41352179867157    8.05730352177354
C        15.49731609243491    6.34921892149942    7.92920290733685
C        14.71238264121962    7.52132384974859    7.95086300383009
C        13.29544087864243    7.48455628914887    7.79723859495186
C        12.57226352612030    8.65644267913293    7.79228287467827
C        10.48813104025991    7.89059981809613    6.84072997754811
C        12.63802751198800    6.15705992697380    7.70999288656723
C        12.71219578430789    5.38726958804878    6.51657368342930
C        13.36442060964900    5.85553966970907    5.35907549934968
C        13.43044101352255    5.07712914376686    4.23384970416831
C        12.84376612924282    3.80221660611328    4.21049428155409
C        12.19288756196817    3.32411029877726    5.31380809458572
C        12.10981435175851    4.10020582531692    6.49073685332060
C        11.44344021840002    3.63442360278133    7.63619182515698
C        11.35351370623859    4.39339755889527    8.78389683275465
C        11.97722455856455    5.67183843144124    8.81476392658591
C        12.93516850979789    6.10971541898438   10.91324076878752
C         9.86516270788011    5.84855652880300   14.18482463244569
C        10.50800066292649    6.33763657245868   15.31974062770429
C         9.71222104249346    6.69906759744600   16.41298185868650
C         8.33924194520997    6.65025966009477   16.29342159006729
C         7.78118177875875    6.26312665204982   15.07178324051264
C         6.41311521349170    6.45087235110665   14.69375629144426
C         4.89269831509344    6.66502414177228   12.95688452662195
C         4.12597075375094    5.89911017136930   12.07943516457958
C         2.92812389964153    6.38318961669167   11.58996767838358
C         2.48534581196048    7.64780115343996   11.94645616830144
C         3.25580708991527    8.43035879940883   12.79264284896784
C         4.44724860156297    7.94719347123082   13.29709653865180
N        11.18904619845960   14.83338283901728   12.68063740510665
N        10.31426246931064   12.55218485483801   11.86939105555185
N         7.83526421985506    7.03144046701481   11.65688722006057
N         6.67310640763951    4.87876409751624   10.85568741568454
C        11.98893962105065   15.88547122315628   13.13305729525295
C        12.15315942837465   17.05031312915840   12.38120188037530
C        12.97647080804657   18.06420903904872   12.83088509793033
C        13.67146137975408   17.92660328497712   14.02320359193036
C        13.53957788603875   16.76118412881985   14.76338259736855
C        12.70520674426871   15.75048434582164   14.32994439547283
C        10.51135941428633   14.15111679493379   13.54899801901612
C         9.95510431116382   12.90811167551527   13.12255121031801
C         9.16216178943481   12.07797918709527   13.92313159493944
C         8.70116362784455   10.88638644705805   13.41052340949158
C         9.01818611972123   10.54361248264753   12.08855662671176
C         9.84204257781721   11.41424841701587   11.37751248698677
C         8.39605069414952    8.12986458356811   12.14553859614696
C         8.45936857925737    9.34087182958301   11.45866620695148
C         7.92228618368575    9.38016690309786   10.16422772589511
C         7.31294077728989    8.25482185051401    9.65675869359020
C         7.26406015951163    7.09172165208456   10.43369596756471
C         6.68447847969639    5.85900065351557   10.00843858174807
C         6.39652577625541    3.59222027425929   10.38694796385110
C         6.90896882967650    3.17666363200819    9.15062092581873
C         6.68728734324922    1.89151991279087    8.69804555515662
C         5.94634648262534    0.99905983054052    9.45829492576783
C         5.44581825676418    1.39712892152903   10.68897586628410
C         5.67812651375176    2.67576887162114   11.15710873731871
H         7.20098060093214   13.65280738233257    9.77640167220125
H         5.19489922574757   14.65298378789732   10.78136691043336
H         5.40185161281340   16.57287495262619   12.31947280533557
H         7.63552363550175   17.47566029814976   12.85573851716805
H         9.63965666931690   16.48473392152400   11.84853006023430
H         8.80888363755198   14.32203857191030    8.24869089240720
H        10.00544314829868   12.85357990089331    6.42934489584028
H        11.57265725260867   10.95265244827505    6.07874073092523
H        13.08408853857573   11.65753713242171   10.02090211872842
H        15.85746197263445   13.03350051285448   15.65873052815797
H        16.74030121519541   12.61477866242931   17.89240803815130
H        16.98481809973813   11.12168440999070   19.83497982551051
H        15.99945892898278    8.86596710696347   19.79475907567953
H        14.77794090751430    8.07201708431160   17.81972083469919
H        15.17792876243155   10.08910721904122   12.01581444278889
H        14.94890339433292    8.45050577427022   12.67416297065433
H        13.80496905920309    9.09251859699899   11.46522618492080
H        16.51544119567156    8.19929782303213   15.30677939818145
H        18.03003016187666    6.31572101245959   14.95502102609474
H        17.15125576569564    4.03422758406776   14.65103223114698
H        14.71805793675336    3.63863274696857   14.67373869503253
H        12.43574632597844    4.50042648626626   14.87035836935287
H        12.13464789022060   10.73037517606492   16.02335781356879
H        12.33710157032883    9.62305294449244   17.40311321769348
H        10.71207849280204   10.17319842473234   16.93759606527600
H         9.73660577320305    5.80157518724896   10.43788515720748
H        11.25062033607945    1.84789067038269    9.76279829470093
H         9.82971980178100    1.07717461243616   11.64593122321743
H         8.18615238658675    1.72943892470406   13.54819500947176
H         8.35226389645888    2.75213348216988   15.72195426411092
H         7.15333037187044    2.34210514225141   17.83021848935542
H         4.72574318426846    2.77056899296624   17.97796149244165
H         3.50909070199646    3.61622535070533   16.00429054769512
H         4.69534992734309    4.02736358217239   13.90320178292851
H        10.34657264617211   16.94834376562400    9.72451912464390
H         9.75239587073888   18.15739632570176    7.68097944560068
H        11.08590673949013   17.86212725370559    5.62542309226463
H        13.02661414105698   16.33497451472570    5.63252116276639
H        13.63044663345113   15.11709088372148    7.68251832693687
H        14.39818621159196   15.86951353184720    9.83726091047965
H        16.07831598478642   15.03298830597771   11.63225836750358
H        16.54879057635217   13.41524107770710   13.45455394775309
H        12.55987740270665   11.92546010891396   12.95590656892188
H        15.08727676590709   10.88723951885062    8.35525852760340
H        17.25645605079485    9.75516766643988    8.41007282497739
H        18.57933614208347    7.67711232974497    8.31389986256545
H        17.44611462247820    5.50947434717602    8.01900517061304
H        15.01702142947700    5.39226392574593    7.79299779567684
H        11.06453835886600    7.60392893257269    5.95989944499189
H        10.17944483138155    6.98989135065369    7.37785281709599
H         9.60115202853704    8.44105040712605    6.52359302628630
H        13.82360374239810    6.83297882560892    5.37276299986425
H        13.93842499385054    5.44112679286118    3.35463397747885
H        12.91021353127877    3.20459839891627    3.31542646639296
H        11.73863080682222    2.34512420994616    5.30323202100671
H        10.95879554371981    2.67036184362457    7.59018923933922
H        12.75370231641739    6.72591019527810   11.79269090032007
H        13.92857209537152    6.32915646564051   10.51028438046669
H        12.89364220990215    5.05155971552513   11.19406271735811
H        10.44169490043759    5.51910364820284   13.33365322417229
H        10.17302511016327    7.02380208067568   17.33188204501384
H         7.69604866256798    6.93414121747566   17.11080515427004
H         5.70919814447582    6.88928108525639   15.39395530205197
H         4.45746319653922    4.91218812753280   11.80905849472349
H         2.33222562539402    5.76758522978055   10.93478842486187
H         1.54772373186638    8.02074343628266   11.56709064953740
H         2.92283163788045    9.41926202703691   13.06636081911006
H         5.05614537563001    8.56861136747455   13.93810673473700
H        11.61297537537367   17.17085576265668   11.45761280396079
H        13.07234945711705   18.96923771929401   12.25220308560743
H        14.31228108403603   18.72032510848562   14.37187690015401
H        14.08626420903916   16.64237160560714   15.68570007401458
H        12.63152134828001   14.83074861244152   14.89300130799608
H        10.39234250781628   14.47574061955693   14.57736187542089
H         8.91325123681485   12.38713923252954   14.92525694538689
H         8.07619843928863   10.23888921663033   14.00504020655354
H        10.15009602528644   11.15429521238057   10.37645965246489
H         8.84825172086848    8.04970895518830   13.12209347907203
H         7.95771711053817   10.29147190719907    9.58842162781319
H         6.86332017018803    8.25816660381225    8.67715332716060
H         6.30823574022091    5.75571650448518    8.99609083187671
H         7.51504687196017    3.85783024726184    8.57005568459681
H         7.08972385669211    1.58507383900179    7.74526761629617
H         5.76221736769472    0.00075878220700    9.09537630225754
H         4.86627974367171    0.70886798904895   11.28359826262572
H         5.27881853772552    2.97613143095376   12.11088115955039
