220
 energy: -348.368792071033 gnorm: 0.000986770672 xtb: 6.4.0 (d4b70c2)
Fe       13.02940742912427    6.59802769338489    8.04253272568993
Fe        9.06514336728811   12.42492170537274   14.65099517197253
O        14.52752769352966   10.20887517370430   11.09870757094786
O        13.67417503849311   12.83505803816667   12.71557196358006
N        11.83131330599251    7.03529420581011    6.61192082860662
N        13.67670321359809    8.40324850783539    7.75628094690079
N        10.81940070711282   12.61247463255428   15.44596785005537
N         8.48900622004206   13.11297184188749   16.36785374630748
C        10.90919629930320    6.18911559038109    5.98498199112792
C        11.02005661193652    5.91305307561942    4.62056481776825
H        11.82821067029425    6.35009472281749    4.05453399725381
C        10.12629400315989    5.04882727535871    4.01543977312587
H        10.22761155430608    4.82953673104810    2.96448499533505
C         9.10138027887026    4.47488475135924    4.75143646214523
H         8.40286286713765    3.80599810928265    4.27540032639083
C         8.96825820372461    4.77504010701480    6.09892647365872
H         8.15454548196253    4.35174610332195    6.66650079550109
C         9.86706213750798    5.62255829976017    6.71849165528076
H         9.74747517159911    5.88687020669039    7.75737807625083
C        12.03686946655791    8.20054964207861    6.10953879395417
H        11.48226054101572    8.57348401255654    5.25363303765661
C        13.00854612442918    9.02511730572176    6.76158706663330
C        13.23565781465776   10.36689887355731    6.44561559668454
H        12.71765369291813   10.81658254847827    5.61369948972930
C        14.09780242553600   11.09844718224400    7.23110927872801
H        14.25980024123840   12.14683881397897    7.03655529294575
C        14.73850239645308   10.48150171402601    8.31542551310338
C        14.51985479132123    9.11156026422945    8.49307017800269
H        15.04471491027144    8.56423635855096    9.25800320364573
C        15.55745905333856   11.29178175696861    9.22031359146560
C        16.40685462423683   12.24707306760992    8.70778010725586
H        16.54307341876605   12.32884224478399    7.63966245882468
C        17.14531618435416   13.10263990066719    9.54123694746821
C        18.03338535881056   14.06508964735005    9.01308080377019
H        18.16735233899501   14.11569173099136    7.94345448355568
C        18.70727817768261   14.91833130491426    9.84177019884086
H        19.38656520794813   15.65075995398729    9.43604002170247
C        18.51462310641890   14.84885751029458   11.23011951938553
H        19.04589490176578   15.53359488154146   11.87233712924636
C        17.66465917427087   13.92236792832352   11.77330716663772
H        17.52630357119529   13.87902332467558   12.84319943761901
C        16.96896724226734   13.01458834634646   10.94871932715350
C        16.08801275040133   12.02761728624811   11.47583312028762
C        15.41828603126019   11.16901954919772   10.63180167836790
C        15.08902115576813    9.21016185549996   11.92280875089973
H        14.26967906349313    8.54659614141613   12.18669632871947
H        15.52458865398724    9.61527442529332   12.83739089577812
H        15.86638250589363    8.64727715824434   11.39257806754181
C        15.89331106172605   11.93938486710058   12.94551907380852
C        16.93918548312232   11.41651808256123   13.75967686660560
C        18.16943632704610   10.98395221575780   13.22402701511038
H        18.33629699208118   11.05512612276336   12.15999496832490
C        19.15308963803363   10.49634829039163   14.04217374033598
H        20.09774399376130   10.18707980694307   13.62279136091330
C        18.95173298954177   10.40284952226116   15.42784899935860
H        19.74538419579289   10.02869375926934   16.05463643992212
C        17.76126221545880   10.79094279190139   15.97539117393528
H        17.59514582564295   10.72415590182755   17.03964304212946
C        16.73011959768350   11.30604888994973   15.15994898051240
C        15.49962050164440   11.71310557423314   15.69950415895866
H        15.34819695027183   11.59105885838893   16.76160324428746
C        14.48736074197052   12.22036337891871   14.91263458208202
C        14.69742984480696   12.33180341085951   13.50692027227377
C        13.85124282944090   14.18377973370389   12.31415666206265
H        12.99094914588289   14.42753648268406   11.69386284144623
H        14.76730134451966   14.31754803730201   11.73494396362138
H        13.87622176205773   14.84876106037627   13.18330661892753
C        11.99659647395694   12.36633731668769   14.89649538721928
H        11.98749625655767   11.96752580553267   13.89664748037037
C        13.21854668107427   12.59143624357838   15.53936250892231
C        13.17284173830455   13.13690948152671   16.83026994192233
H        14.08459913542376   13.37229574048913   17.35572353868634
C        11.95022828245483   13.39449974730735   17.41242590361636
H        11.88250249271601   13.81857431670406   18.40138935451775
C        10.78419643119785   13.11719881635805   16.69573636994068
C         9.45640254450389   13.37258076424703   17.16873827966758
H         9.29331947281266   13.76971854041664   18.16643273007471
C         7.18165789962062   13.37224463093529   16.83153740646390
C         6.71343527140392   14.68062385425206   16.90665104113894
H         7.35167617470620   15.49147281740853   16.59748414345811
C         5.43612223820146   14.92981873641001   17.37783275854608
H         5.08200853370006   15.94659962973194   17.43614106035931
C         4.62458599280391   13.88485734787672   17.78945448454910
H         3.63325417049901   14.08301573803913   18.16363150935737
C         5.10126197688246   12.58402924829057   17.74013565111123
H         4.48586824182515   11.76949782808357   18.08863748732310
C         6.37467540802898   12.32314321518824   17.26517298216569
H         6.76452505379387   11.31688045473427   17.27257299144801
O        12.80024505878416    5.64451375310264   13.01974149614776
O        11.85437165733873    8.35085883959527   14.54539130948419
N        14.35442219667496    5.83833911300472    6.80742411075442
N        14.35292854545326    6.07357575579257    9.37632860664741
N         8.79590733755945   10.59958636895941   15.27430527027122
N         7.22418559096718   12.22988515487906   14.05470026171862
C        14.38303334106009    5.80504810439735    5.40265011105265
C        14.42116123503156    6.99455209460389    4.67557710122917
H        14.47725659438190    7.93556290045199    5.19712448431908
C        14.47237293988263    6.96326692897487    3.29369311320947
H        14.52132412151813    7.88906334613039    2.74178965412784
C        14.47852182486524    5.75262273046272    2.61804281801210
H        14.50911425103553    5.73355090305208    1.54061976736485
C        14.47429209647606    4.56798516281479    3.33736853981174
H        14.51006830753528    3.62198364152228    2.82095778502329
C        14.44579286942944    4.59000081972141    4.71927966226790
H        14.45475877940911    3.66829727465679    5.27904594772702
C        15.28914832676899    5.20922886183745    7.42671145669341
H        16.07475702164717    4.67542315708614    6.89958483887587
C        15.32207180277594    5.29457681291254    8.85422225145537
C        16.27848573024420    4.66790832919057    9.65637953923013
H        17.02830843642147    4.04047799097401    9.20241763507537
C        16.24254924042851    4.86088113555609   11.02122588056952
H        16.96548164464582    4.38272673857587   11.66341353946705
C        15.24099592200463    5.67174320646406   11.56765973093868
C        14.31336251637138    6.23526833053263   10.68827172151910
H        13.52224673330523    6.85476212849795   11.07641385730553
C        15.19057202737045    5.98417154699306   12.99707201910790
C        16.35340565745349    6.30384616553904   13.65975440815621
H        17.29461196117197    6.29512905970448   13.13042678396703
C        16.34954574108077    6.68710820972596   15.01173110288055
C        17.54124375070108    7.02941604771658   15.68617202282191
H        18.47457760188180    6.97690959254423   15.14694248826558
C        17.51329004749087    7.40558383868715   16.99981008732987
H        18.42739641043912    7.64796075327358   17.51778110200857
C        16.29176091414671    7.47125264601681   17.68687093075279
H        16.28311410659874    7.76949830673223   18.72371183398522
C        15.11845834578812    7.15002809985224   17.05878466354350
H        14.18499144590707    7.19864568323210   17.59879737936051
C        15.11464917500706    6.73419404542803   15.71165130778583
C        13.91535989870394    6.37165895082443   15.03048241189364
C        13.95405225932782    6.00923922983888   13.70212225903243
C        12.37565897576199    4.31959486609108   13.29664221544055
H        11.47555224490976    4.15833997645144   12.70799715295301
H        12.14545048214648    4.18164041192184   14.35546575349398
H        13.14193737213801    3.59503036655725   13.00199424875152
C        12.62788255645304    6.40137389437452   15.77081935646384
C        12.38252436708135    5.39670367953213   16.75151155466959
C        13.30394772464880    4.36397739418124   17.02006112234081
H        14.23066549766947    4.32301809316652   16.46753445852376
C        13.03607256348129    3.41913204983369   17.97508398461584
H        13.75209289806731    2.63718253324512   18.17375081297099
C        11.83776032817204    3.45557062801925   18.70432818093618
H        11.64991714875389    2.70540169925822   19.45563196476293
C        10.91647604511696    4.43514144903098   18.45818224629773
H         9.98820252569106    4.46882263167851   19.00756957235526
C        11.16034126377734    5.42003525257832   17.47609699527258
C        10.21456614781776    6.41552011036818   17.18353463494267
H         9.29513101771058    6.42905289347505   17.74948578734831
C        10.45349792301043    7.38741358457853   16.23718117353991
C        11.68992655528926    7.38066050065771   15.52779440401203
C        12.96530777931675    9.20805468553805   14.70064147239142
H        12.92253597747158    9.90832720566830   13.86919251862242
H        13.91539109416830    8.67389158898705   14.66818318763990
H        12.91476010700519    9.75366456696752   15.65000469539822
C         9.69759481500117    9.72164235156041   15.68825398271372
H        10.69291499029465   10.10720526483488   15.83295227981302
C         9.41489387645145    8.37309589107741   15.92959005531591
C         8.07288569690206    7.97656348206084   15.83723424621757
H         7.79604943740419    6.95520256507872   16.04536758455583
C         7.12118679700820    8.88921618668748   15.43976842663594
H         6.08413733380413    8.60983415117874   15.34539471778275
C         7.52312068960366   10.18683365680668   15.11273433662795
C         6.67137666949897   11.15677488184941   14.49367419163769
H         5.61850898998728   10.94038849776305   14.33694252552359
C         6.40765985640489   13.14502143782622   13.36762488490420
C         6.66685654339086   13.43280902948570   12.02853038787747
H         7.47507960511493   12.92771288992260   11.52250226314532
C         5.85079622795962   14.31282422547556   11.34033904723204
H         6.04596129305259   14.51812131082977   10.29922793738242
C         4.78038958495209   14.92112203792210   11.97833337416640
H         4.15222587272419   15.61222420782751   11.43982622073970
C         4.50973479076994   14.62011278683155   13.30366610408114
H         3.66607725548818   15.07196241475990   13.80020490055117
C         5.30569135201415   13.72380029244775   13.99357895544722
H         5.08850515949593   13.47819673235203   15.01993200109402
N        12.25472947912324    4.90317520316942    8.49121116970823
N        11.79072914534513    7.26517616723738    9.40653920218973
N         9.76757040124008   11.78557156978482   12.94324110521522
N         9.26153952830207   14.13902243302493   13.83851579235558
C        12.64520369697722    3.62860689311267    8.06093943595121
C        13.22513128973739    2.74355623607554    8.97386781712910
H        13.39407395466014    3.06994699671081    9.99094973096436
C        13.60425885110311    1.47870882449792    8.56810038276804
H        14.06343226076499    0.80473892875465    9.27407326883472
C        13.37812378088250    1.06958088407599    7.26245924213577
H        13.65509221813188    0.07474082994368    6.95288330289152
C        12.78839266927173    1.94097925246823    6.35972432046078
H        12.59467997317059    1.62023863679585    5.34818118439756
C        12.43847083712724    3.22301102203733    6.74559357443104
H        11.96970228406962    3.89965516992828    6.05151030711425
C        11.46073321995179    4.96279034690929    9.50614770357091
H        11.03263485991416    4.07124570396995    9.95381354817126
C        11.14032386867784    6.25477807680503   10.02333991103518
C        10.24827811716058    6.48444323874322   11.07451487125717
H         9.73948630995322    5.65268453659534   11.53331171880370
C        10.02072895101875    7.77341060687692   11.49978524024596
H         9.31512490259397    7.96127273257059   12.29238475697641
C        10.69465923563845    8.83022171294724   10.87008922217519
C        11.56929854614811    8.50072681219031    9.83210803170395
H        12.13683633720857    9.28180968863304    9.35484664212324
C        10.05821324061616   10.55528220640406   12.54436777625504
H         9.99163308417075    9.78159529903194   13.29223979414454
C        10.47325885548923   10.22742851813249   11.25156271020463
C        10.62865346072046   11.28432579344687   10.34225146524609
H        10.92326812807003   11.09723941169685    9.32231026278112
C        10.37113465990688   12.57182467174203   10.75697303307011
H        10.48279717255116   13.40563296863932   10.08270416897538
C         9.92977329727220   12.79695886251488   12.06412913679300
C         9.62355377766639   14.08537195975739   12.60459834678174
H         9.72516650640464   14.97732918508896   11.99361570218669
C         8.97239049888888   15.40397380311676   14.37850850696215
C         7.91319299363961   16.15926514856234   13.87710210208407
H         7.30999344471854   15.76157272696517   13.07769229966537
C         7.62657688179390   17.39766925713884   14.42233426504438
H         6.79684033420331   17.96776049840184   14.03592207455765
C         8.40734495989838   17.91118220418020   15.44583590800336
H         8.18650869918022   18.88003212355859   15.86359358592752
C         9.48758595686932   17.18053435236032   15.91692582794908
H        10.11965961564016   17.58875290817713   16.68994729139637
C         9.76976916119508   15.93205382410950   15.39289255721737
H        10.63618456369426   15.38585709424861   15.72914982470517
