%chk=m2_la_FINAL.chk
%nprocshared=48
%mem=120GB
# SP PBE1PBE/def2svp empiricaldispersion=GD3BJ scrf=(solvent=dmso)

m2_la

4 1
 Pd                -7.84950000    0.93010000   -0.29610000
 Pd                 7.84920000   -0.93050000   -0.29560000
 C                 -7.36790000    5.12150000   -0.97490000
 C                 -7.91020000    3.86500000   -0.92050000
 N                 -7.41090000    2.91070000   -0.08290000
 C                 -6.43630000    3.21930000    0.75750000
 C                 -5.84670000    4.49790000    0.81830000
 C                 -4.78830000    4.79860000    1.73400000
 C                 -4.38390000    3.80770000    2.75550000
 C                 -3.06310000    3.34040000    2.80000000
 C                 -2.70060000    2.32220000    3.67180000
 C                 -3.65520000    1.74140000    4.52950000
 C                 -3.33110000    0.54780000    5.23560000
 C                 -3.08180000   -0.58440000    5.61600000
 C                 -2.77980000   -1.97550000    5.69060000
 C                 -1.97860000   -2.47940000    4.65370000
 C                 -1.82270000   -3.85200000    4.53730000
 C                 -1.18100000   -4.71450000    3.57510000
 C                 -0.43420000   -4.50340000    2.42470000
 C                  0.02100000   -5.61760000    1.70150000
 C                  0.81090000   -5.36440000    0.54510000
 C                  1.49550000   -4.98400000   -0.38910000
 C                  2.29400000   -4.40450000   -1.41240000
 C                  2.65190000   -3.04710000   -1.29850000
 C                  3.43830000   -2.44220000   -2.26520000
 C                  3.90550000   -3.16750000   -3.37310000
 C                  4.77210000   -2.52770000   -4.38570000
 C                  4.48520000   -2.63220000   -5.73370000
 C                  5.27630000   -1.98850000   -6.70970000
 C                  6.38170000   -1.24730000   -6.35700000
 C                  6.74870000   -1.15100000   -4.99490000
 C                  7.91010000   -0.46700000   -4.55370000
 C                  8.23800000   -0.44380000   -3.22450000
 N                  7.46580000   -1.07110000   -2.29190000
 C                  6.37450000   -1.71590000   -2.66920000
 C                  5.94130000   -1.79150000   -4.00670000
 C                  3.52470000   -4.51130000   -3.49890000
 C                  2.73330000   -5.12560000   -2.53530000
 C                 -0.29490000   -6.92410000    2.14350000
 C                 -1.04770000   -7.14470000    3.29440000
 C                 -1.47570000   -6.02380000    3.99550000
 O                 -2.22430000   -6.01960000    5.13540000
 C                 -2.44240000   -4.71250000    5.46010000
 C                 -3.19010000   -4.24030000    6.53200000
 C                 -3.35290000   -2.85980000    6.63330000
 C                 -4.96010000    2.26580000    4.54300000
 C                 -5.31600000    3.28100000    3.66440000
 C                 -4.14750000    6.01580000    1.60960000
 C                 -4.55500000    6.96390000    0.64490000
 C                 -5.61490000    6.71510000   -0.19790000
 C                 -6.28330000    5.47040000   -0.13020000
 H                 -7.76550000    5.84840000   -1.68500000
 H                 -8.73630000    3.56280000   -1.56450000
 H                 -6.06430000    2.41900000    1.39800000
 H                 -2.32910000    3.75350000    2.10510000
 H                 -1.67920000    1.93600000    3.66940000
 H                 -1.53730000   -1.79830000    3.92540000
 H                 -0.21200000   -3.49400000    2.07440000
 H                  2.29980000   -2.47080000   -0.44060000
 H                  3.67920000   -1.38160000   -2.17270000
 H                  3.60440000   -3.19560000   -6.04630000
 H                  4.99450000   -2.07750000   -7.76110000
 H                  6.98830000   -0.74540000   -7.11320000
 H                  8.55630000    0.03470000   -5.27550000
 H                  9.12650000    0.06950000   -2.85610000
 H                  5.80620000   -2.21740000   -1.88830000
 H                  3.87640000   -5.09180000   -4.35470000
 H                  2.45710000   -6.17580000   -2.64270000
 H                  0.06350000   -7.77720000    1.56480000
 H                 -1.29060000   -8.15330000    3.63110000
 H                 -3.65210000   -4.92140000    7.24760000
 H                 -3.95470000   -2.45010000    7.44630000
 H                 -5.70180000    1.84450000    5.22380000
 H                 -6.34070000    3.66090000    3.67250000
 H                 -3.32350000    6.25860000    2.28360000
 H                 -4.02470000    7.91660000    0.58390000
 H                 -5.94150000    7.46050000   -0.92550000
 C                 -8.99870000    1.59760000    3.76740000
 C                 -8.90740000    1.64240000    2.40150000
 N                 -8.10530000    0.77990000    1.71440000
 C                 -7.39420000   -0.12280000    2.36830000
 C                 -7.40080000   -0.23830000    3.77240000
 C                 -6.62190000   -1.22920000    4.45140000
 C                 -5.75580000   -2.14420000    3.67680000
 C                 -4.75750000   -1.63670000    2.83090000
 C                 -4.03170000   -2.48430000    2.01070000
 C                 -4.29380000   -3.86910000    1.99530000
 C                 -3.64330000   -4.65850000    1.00770000
 C                 -3.11060000   -5.14900000    0.02680000
 C                 -2.49480000   -5.44340000   -1.22190000
 C                 -1.65480000   -4.45170000   -1.75270000
 C                 -1.18550000   -4.59960000   -3.04910000
 C                 -0.40000000   -3.77780000   -3.93810000
 C                  0.23160000   -2.54890000   -3.81970000
 C                  0.90410000   -2.02680000   -4.93540000
 C                  1.61940000   -0.81040000   -4.75570000
 C                  2.26730000    0.16950000   -4.43040000
 C                  3.09890000    1.18570000   -3.88440000
 C                  3.15460000    1.32630000   -2.48350000
 C                  4.06870000    2.18840000   -1.89890000
 C                  4.93980000    2.95290000   -2.68780000
 C                  5.99780000    3.76700000   -2.04710000
 C                  6.05830000    5.13810000   -2.18900000
 C                  7.06830000    5.89560000   -1.55290000
 C                  8.04370000    5.29150000   -0.79200000
 C                  8.04970000    3.88340000   -0.65390000
 C                  9.05290000    3.17350000    0.05380000
 C                  9.02150000    1.80520000    0.11400000
 N                  8.02970000    1.08890000   -0.48840000
 C                  7.07310000    1.71890000   -1.15070000
 C                  7.01720000    3.12090000   -1.27710000
 C                  4.83120000    2.87290000   -4.08200000
 C                  3.92860000    1.99690000   -4.67680000
 C                  0.90750000   -2.74110000   -6.15680000
 C                  0.28400000   -3.98080000   -6.28160000
 C                 -0.35490000   -4.48190000   -5.15440000
 O                 -1.02490000   -5.66710000   -5.06340000
 C                 -1.53320000   -5.73700000   -3.79960000
 C                 -2.31510000   -6.76210000   -3.28040000
 C                 -2.79240000   -6.59900000   -1.98130000
 C                 -5.24130000   -4.38540000    2.89360000
 C                 -5.95580000   -3.52990000    3.72580000
 C                 -6.73740000   -1.31780000    5.82460000
 C                 -7.56550000   -0.43260000    6.55060000
 C                 -8.30360000    0.54000000    5.91360000
 C                 -8.24580000    0.64850000    4.50440000
 H                 -9.65780000    2.29580000    4.28550000
 H                 -9.46840000    2.36360000    1.80700000
 H                 -6.78480000   -0.79890000    1.76950000
 H                 -4.54710000   -0.56460000    2.82300000
 H                 -3.25520000   -2.07960000    1.35880000
 H                 -1.41150000   -3.56820000   -1.16250000
 H                  0.21790000   -1.99890000   -2.87890000
 H                  2.48350000    0.73480000   -1.85770000
 H                  4.11750000    2.27530000   -0.81200000
 H                  5.29520000    5.64700000   -2.78080000
 H                  7.06680000    6.98150000   -1.67010000
 H                  8.82290000    5.88160000   -0.30570000
 H                  9.86430000    3.71390000    0.54380000
 H                  9.78440000    1.23160000    0.64110000
 H                  6.30800000    1.10130000   -1.62090000
 H                  5.49670000    3.47120000   -4.70830000
 H                  3.88520000    1.91050000   -5.76390000
 H                  1.41980000   -2.30990000   -7.01870000
 H                  0.29570000   -4.53250000   -7.22240000
 H                 -2.56360000   -7.64420000   -3.87200000
 H                 -3.43680000   -7.36520000   -1.54660000
 H                 -5.44000000   -5.45830000    2.91050000
 H                 -6.71830000   -3.93840000    4.39270000
 H                 -6.15820000   -2.07270000    6.35910000
 H                 -7.61150000   -0.52360000    7.63790000
 H                 -8.93910000    1.22430000    6.47890000
 C                 -9.05300000   -3.17370000    0.05640000
 C                 -9.02160000   -1.80540000    0.11560000
 N                 -8.02990000   -1.08950000   -0.48750000
 C                 -7.07340000   -1.71990000   -1.14940000
 C                 -7.01740000   -3.12200000   -1.27480000
 C                 -5.99800000   -3.76860000   -2.04440000
 C                 -4.94010000   -2.95490000   -2.68560000
 C                 -4.06890000   -2.19000000   -1.89730000
 C                 -3.15470000   -1.32830000   -2.48250000
 C                 -3.09900000   -1.18860000   -3.88340000
 C                 -2.26730000   -0.17290000   -4.43020000
 C                 -1.61950000    0.80670000   -4.75610000
 C                 -0.90420000    2.02300000   -4.93670000
 C                 -0.23180000    2.54600000   -3.82130000
 C                  0.39990000    3.77470000   -3.94060000
 C                  1.18550000    4.59720000   -3.05220000
 C                  1.65460000    4.45020000   -1.75560000
 C                  2.49470000    5.44230000   -1.22550000
 C                  3.11050000    5.14880000    0.02340000
 C                  3.64340000    4.65910000    1.00460000
 C                  4.29410000    3.87050000    1.99270000
 C                  4.03210000    2.48560000    2.00900000
 C                  4.75800000    1.63870000    2.82990000
 C                  5.75630000    2.14680000    3.67530000
 C                  6.62240000    1.23240000    4.45060000
 C                  6.73820000    1.32210000    5.82360000
 C                  7.56620000    0.43730000    6.55020000
 C                  8.30410000   -0.53580000    5.91380000
 C                  8.24610000   -0.64540000    4.50470000
 C                  8.99880000   -1.59520000    3.76820000
 C                  8.90720000   -1.64100000    2.40250000
 N                  8.10520000   -0.77890000    1.71480000
 C                  7.39430000    0.12430000    2.36810000
 C                  7.40110000    0.24100000    3.77210000
 C                  5.95610000    3.53260000    3.72330000
 C                  5.24150000    4.38740000    2.89060000
 C                  2.79240000    6.59720000   -1.98580000
 C                  2.31520000    6.75940000   -3.28510000
 C                  1.53330000    5.73400000   -3.80360000
 O                  1.02510000    5.66310000   -5.06730000
 C                  0.35500000    4.47790000   -5.15740000
 C                 -0.28390000    3.97600000   -6.28430000
 C                 -0.90740000    2.73640000   -6.15860000
 C                 -3.92880000   -2.00040000   -4.67530000
 C                 -4.83140000   -2.87590000   -4.07990000
 C                 -6.05850000   -5.13980000   -2.18520000
 C                 -7.06840000   -5.89690000   -1.54850000
 C                 -8.04380000   -5.29230000   -0.78800000
 C                 -8.04980000   -3.88410000   -0.65090000
 H                 -9.86430000   -3.71380000    0.54690000
 H                 -9.78450000   -1.23140000    0.64230000
 H                 -6.30840000   -1.10260000   -1.62030000
 H                 -4.11760000   -2.27620000   -0.81030000
 H                 -2.48350000   -0.73650000   -1.85700000
 H                 -0.21820000    1.99670000   -2.88010000
 H                  1.41140000    3.56710000   -1.16480000
 H                  3.25560000    2.08040000    1.35740000
 H                  4.54770000    0.56650000    2.82280000
 H                  6.15920000    2.07740000    6.35770000
 H                  7.61240000    0.52910000    7.63740000
 H                  8.93960000   -1.21980000    6.47940000
 H                  9.65780000   -2.29310000    4.28680000
 H                  9.46800000   -2.36280000    1.80830000
 H                  6.78480000    0.80000000    1.76890000
 H                  6.71870000    3.94170000    4.38990000
 H                  5.44010000    5.46040000    2.90670000
 H                  3.43680000    7.36370000   -1.55170000
 H                  2.56380000    7.64100000   -3.87730000
 H                 -0.29540000    4.52690000   -7.22550000
 H                 -1.41970000    2.30460000   -7.02020000
 H                 -3.88540000   -1.91470000   -5.76240000
 H                 -5.49690000   -3.47460000   -4.70580000
 H                 -5.29540000   -5.64910000   -2.77680000
 H                 -7.06690000   -6.98290000   -1.66500000
 H                 -8.82290000   -5.88210000   -0.30120000
 C                 -7.91020000    0.46370000   -4.55380000
 C                 -8.23820000    0.44140000   -3.22470000
 N                 -7.46610000    1.06940000   -2.29250000
 C                 -6.37470000    1.71390000   -2.67010000
 C                 -5.94130000    1.78850000   -4.00760000
 C                 -4.77210000    2.52440000   -4.38710000
 C                 -3.90560000    3.16500000   -3.37500000
 C                 -3.43860000    2.44060000   -2.26640000
 C                 -2.65220000    3.04630000   -1.30010000
 C                 -2.29430000    4.40350000   -1.41520000
 C                 -1.49560000    4.98400000   -0.39240000
 C                 -0.81080000    5.36510000    0.54140000
 C                 -0.02060000    5.61910000    1.69730000
 C                  0.43450000    4.50550000    2.42150000
 C                  1.18150000    4.71760000    3.57150000
 C                  1.82320000    3.85580000    4.53440000
 C                  1.97890000    2.48330000    4.65200000
 C                  2.78020000    1.98020000    5.68920000
 C                  3.08210000    0.58900000    5.61560000
 C                  3.33130000   -0.54340000    5.23600000
 C                  3.65520000   -1.73770000    4.53070000
 C                  2.70040000   -2.31880000    3.67350000
 C                  3.06270000   -3.33780000    2.80240000
 C                  4.38350000   -3.80530000    2.75820000
 C                  4.78760000   -4.79710000    1.73750000
 C                  4.14670000   -6.01430000    1.61400000
 C                  4.55420000   -6.96320000    0.65000000
 C                  5.61400000   -6.71520000   -0.19290000
 C                  6.28260000   -5.47050000   -0.12630000
 C                  7.36720000   -5.12240000   -0.97120000
 C                  7.90960000   -3.86580000   -0.91780000
 N                  7.41040000   -2.91080000   -0.08100000
 C                  6.43580000   -3.21870000    0.75970000
 C                  5.84600000   -4.49720000    0.82150000
 C                  5.31570000   -3.27810000    3.66670000
 C                  4.96000000   -2.26220000    4.54450000
 C                  3.35370000    2.86520000    6.63090000
 C                  3.19120000    4.24560000    6.52840000
 C                  2.44330000    4.71700000    5.45630000
 O                  2.22540000    6.02380000    5.13040000
 C                  1.47650000    6.02720000    3.99070000
 C                  1.04860000    7.14750000    3.28860000
 C                  0.29560000    6.92600000    2.13810000
 C                 -2.73350000    5.12370000   -2.53870000
 C                 -3.52490000    4.50870000   -3.50180000
 C                 -4.48500000    2.62780000   -5.73520000
 C                 -5.27610000    1.98330000   -6.71070000
 C                 -6.38150000    1.24250000   -6.35760000
 C                 -6.74870000    1.14730000   -4.99540000
 H                 -8.55640000   -0.03850000   -5.27540000
 H                 -9.12680000   -0.07150000   -2.85600000
 H                 -5.80630000    2.21580000   -1.88950000
 H                 -3.67960000    1.38010000   -2.17300000
 H                 -2.30030000    2.47080000   -0.44170000
 H                  0.21210000    3.49590000    2.07210000
 H                  1.53720000    1.80160000    3.92450000
 H                  1.67910000   -1.93240000    3.67090000
 H                  2.32860000   -3.75120000    2.10780000
 H                  3.32270000   -6.25650000    2.28830000
 H                  4.02370000   -7.91590000    0.58980000
 H                  5.94060000   -7.46110000   -0.91990000
 H                  7.76470000   -5.84980000   -1.68070000
 H                  8.73580000   -3.56430000   -1.56210000
 H                  6.06380000   -2.41780000    1.39960000
 H                  6.34030000   -3.65820000    3.67500000
 H                  5.70180000   -1.84050000    5.22500000
 H                  3.95560000    2.45610000    7.44420000
 H                  3.65350000    4.92740000    7.24330000
 H                  1.29190000    8.15640000    3.62430000
 H                 -0.06270000    7.77860000    1.55870000
 H                 -2.45720000    6.17390000   -2.64690000
 H                 -3.87640000    5.08850000   -4.35820000
 H                 -3.60410000    3.19090000   -6.04810000
 H                 -4.99410000    2.07140000   -7.76220000
 H                 -6.98810000    0.74010000   -7.11340000

 1 5 1.0 80 1.0 155 1.0 230 1.0
 2 34 1.0 109 1.0 184 1.0 259 1.0
 3 4 2.0 51 1.5 52 1.0
 4 5 1.5 53 1.0
 5 6 1.5
 6 7 1.5 54 1.0
 7 8 1.5 51 1.5
 8 9 1.0 48 2.0
 9 10 1.5 47 1.5
 10 11 1.5 55 1.0
 11 12 1.5 56 1.0
 12 13 1.5 46 1.5
 13 14 3.0
 14 15 1.5
 15 16 1.5 45 1.5
 16 17 1.5 57 1.0
 17 18 1.5 43 1.5
 18 19 1.5 41 1.5
 19 20 1.5 58 1.0
 20 21 1.5 39 1.5
 21 22 3.0
 22 23 1.5
 23 24 1.5 38 1.5
 24 25 2.0 59 1.0
 25 26 1.5 60 1.0
 26 27 1.0 37 1.5
 27 28 2.0 36 1.5
 28 29 1.5 61 1.0
 29 30 2.0 62 1.0
 30 31 1.5 63 1.0
 31 32 1.5 36 1.5
 32 33 2.0 64 1.0
 33 34 1.5 65 1.0
 34 35 2.0
 35 36 1.5 66 1.0
 36
 37 38 1.5 67 1.0
 38 68 1.0
 39 40 1.5 69 1.0
 40 41 1.5 70 1.0
 41 42 1.0
 42 43 1.0
 43 44 1.5
 44 45 1.5 71 1.0
 45 72 1.0
 46 47 1.5 73 1.0
 47 74 1.0
 48 49 1.5 75 1.0
 49 50 2.0 76 1.0
 50 51 1.5 77 1.0
 51
 52
 53
 54
 55
 56
 57
 58
 59
 60
 61
 62
 63
 64
 65
 66
 67
 68
 69
 70
 71
 72
 73
 74
 75
 76
 77
 78 79 2.0 126 1.5 127 1.0
 79 80 1.5 128 1.0
 80 81 2.0
 81 82 1.5 129 1.0
 82 83 1.5 126 1.5
 83 84 1.0 123 2.0
 84 85 1.5 122 1.5
 85 86 2.0 130 1.0
 86 87 1.5 131 1.0
 87 88 1.5 121 1.5
 88 89 3.0
 89 90 1.5
 90 91 1.5 120 1.5
 91 92 1.5 132 1.0
 92 93 1.5 118 1.5
 93 94 1.5 116 1.5
 94 95 1.5 133 1.0
 95 96 1.5 114 1.5
 96 97 3.0
 97 98 1.5
 98 99 1.5 113 1.5
 99 100 2.0 134 1.0
 100 101 1.5 135 1.0
 101 102 1.0 112 1.5
 102 103 2.0 111 1.5
 103 104 1.5 136 1.0
 104 105 2.0 137 1.0
 105 106 1.5 138 1.0
 106 107 1.5 111 1.5
 107 108 2.0 139 1.0
 108 109 1.5 140 1.0
 109 110 1.5
 110 111 1.5 141 1.0
 111
 112 113 1.5 142 1.0
 113 143 1.0
 114 115 1.5 144 1.0
 115 116 1.5 145 1.0
 116 117 1.0
 117 118 1.0
 118 119 1.5
 119 120 1.5 146 1.0
 120 147 1.0
 121 122 1.5 148 1.0
 122 149 1.0
 123 124 1.5 150 1.0
 124 125 2.0 151 1.0
 125 126 1.5 152 1.0
 126
 127
 128
 129
 130
 131
 132
 133
 134
 135
 136
 137
 138
 139
 140
 141
 142
 143
 144
 145
 146
 147
 148
 149
 150
 151
 152
 153 154 2.0 201 1.5 202 1.0
 154 155 1.5 203 1.0
 155 156 1.5
 156 157 1.5 204 1.0
 157 158 1.5 201 1.5
 158 159 1.0 198 2.0
 159 160 1.5 197 1.5
 160 161 2.0 205 1.0
 161 162 1.5 206 1.0
 162 163 1.5 196 1.5
 163 164 3.0
 164 165 1.5
 165 166 1.5 195 1.5
 166 167 1.5 207 1.0
 167 168 1.5 193 1.5
 168 169 1.5 191 1.5
 169 170 1.5 208 1.0
 170 171 1.5 189 1.5
 171 172 3.0
 172 173 1.5
 173 174 1.5 188 1.5
 174 175 2.0 209 1.0
 175 176 1.5 210 1.0
 176 177 1.0 187 1.5
 177 178 2.0 186 1.5
 178 179 1.5 211 1.0
 179 180 2.0 212 1.0
 180 181 1.5 213 1.0
 181 182 1.5 186 1.5
 182 183 2.0 214 1.0
 183 184 1.5 215 1.0
 184 185 2.0
 185 186 1.5 216 1.0
 186
 187 188 1.5 217 1.0
 188 218 1.0
 189 190 1.5 219 1.0
 190 191 1.5 220 1.0
 191 192 1.0
 192 193 1.0
 193 194 1.5
 194 195 1.5 221 1.0
 195 222 1.0
 196 197 1.5 223 1.0
 197 224 1.0
 198 199 1.5 225 1.0
 199 200 2.0 226 1.0
 200 201 1.5 227 1.0
 201
 202
 203
 204
 205
 206
 207
 208
 209
 210
 211
 212
 213
 214
 215
 216
 217
 218
 219
 220
 221
 222
 223
 224
 225
 226
 227
 228 229 2.0 276 1.5 277 1.0
 229 230 1.5 278 1.0
 230 231 2.0
 231 232 1.5 279 1.0
 232 233 1.5 276 1.5
 233 234 1.0 273 2.0
 234 235 1.5 272 1.5
 235 236 2.0 280 1.0
 236 237 1.5 281 1.0
 237 238 1.5 271 1.5
 238 239 3.0
 239 240 1.5
 240 241 1.5 270 1.5
 241 242 1.5 282 1.0
 242 243 1.5 268 1.5
 243 244 1.5 266 1.5
 244 245 1.5 283 1.0
 245 246 1.5 264 1.5
 246 247 3.0
 247 248 1.5
 248 249 1.5 263 1.5
 249 250 1.5 284 1.0
 250 251 1.5 285 1.0
 251 252 1.0 262 1.5
 252 253 2.0 261 1.5
 253 254 1.5 286 1.0
 254 255 2.0 287 1.0
 255 256 1.5 288 1.0
 256 257 1.5 261 1.5
 257 258 2.0 289 1.0
 258 259 1.5 290 1.0
 259 260 1.5
 260 261 1.5 291 1.0
 261
 262 263 1.5 292 1.0
 263 293 1.0
 264 265 1.5 294 1.0
 265 266 1.5 295 1.0
 266 267 1.0
 267 268 1.0
 268 269 1.5
 269 270 1.5 296 1.0
 270 297 1.0
 271 272 1.5 298 1.0
 272 299 1.0
 273 274 1.5 300 1.0
 274 275 2.0 301 1.0
 275 276 1.5 302 1.0
 276
 277
 278
 279
 280
 281
 282
 283
 284
 285
 286
 287
 288
 289
 290
 291
 292
 293
 294
 295
 296
 297
 298
 299
 300
 301
 302

