%chk=trans_l2_ld_FINAL.chk
%nprocshared=48
%mem=120GB
# SP PBE1PBE/def2svp empiricaldispersion=GD3BJ scrf=(solvent=dmso)

trans_l2_lc

4 1
 Pd                -6.13590000   -2.33360000   -0.18390000
 Pd                 6.13580000   -2.33370000    0.18390000
 C                  0.12650000   -5.74490000   -4.81650000
 C                  1.33070000   -5.30030000   -4.27620000
 C                  1.33280000   -4.30030000   -3.29460000
 C                  0.11270000   -3.76460000   -2.86640000
 C                 -1.10340000   -4.23050000   -3.37910000
 C                 -1.08460000   -5.22590000   -4.36640000
 C                 -2.37020000   -3.71550000   -2.82190000
 C                 -2.49600000   -2.38640000   -2.39230000
 C                 -3.65260000   -1.97570000   -1.75130000
 N                 -4.67450000   -2.81380000   -1.52360000
 C                 -4.60510000   -4.06970000   -1.98900000
 C                 -3.48220000   -4.55000000   -2.64300000
 C                  2.58240000   -3.83350000   -2.66190000
 C                  3.60690000   -4.72000000   -2.30400000
 C                  4.69930000   -4.25540000   -1.58600000
 N                  4.82020000   -2.96760000   -1.23610000
 C                  3.88690000   -2.08920000   -1.63520000
 C                  2.76400000   -2.48130000   -2.34110000
 H                  0.13170000   -6.50860000   -5.59670000
 H                  2.27430000   -5.71940000   -4.63210000
 H                  0.10820000   -3.02190000   -2.06560000
 H                 -2.02060000   -5.58810000   -4.79650000
 H                 -1.69290000   -1.66430000   -2.54360000
 H                 -3.76000000   -0.94980000   -1.39260000
 H                 -5.46590000   -4.71380000   -1.79810000
 H                 -3.46410000   -5.59400000   -2.95770000
 H                  3.53590000   -5.78530000   -2.52730000
 H                  5.48510000   -4.93440000   -1.24960000
 H                  4.03890000   -1.04390000   -1.35760000
 H                  2.03090000   -1.72820000   -2.63190000
 C                 -0.12670000   -5.74570000    4.81590000
 C                  1.08440000   -5.22670000    4.36590000
 C                  1.10320000   -4.23110000    3.37870000
 C                 -0.11290000   -3.76510000    2.86610000
 C                 -1.33300000   -4.30080000    3.29430000
 C                 -1.33080000   -5.30090000    4.27570000
 C                 -2.58260000   -3.83390000    2.66170000
 C                 -3.60710000   -4.72030000    2.30360000
 C                 -4.69940000   -4.25550000    1.58570000
 N                 -4.82030000   -2.96760000    1.23600000
 C                 -3.88700000   -2.08930000    1.63530000
 C                 -2.76410000   -2.48150000    2.34110000
 C                  2.37000000   -3.71610000    2.82170000
 C                  2.49590000   -2.38690000    2.39220000
 C                  3.65250000   -1.97610000    1.75130000
 N                  4.67440000   -2.81420000    1.52350000
 C                  4.60500000   -4.07010000    1.98870000
 C                  3.48210000   -4.55050000    2.64260000
 H                 -0.13190000   -6.50950000    5.59600000
 H                  2.02050000   -5.58900000    4.79590000
 H                 -0.10840000   -3.02230000    2.06550000
 H                 -2.27450000   -5.72010000    4.63150000
 H                 -3.53600000   -5.78560000    2.52670000
 H                 -5.48530000   -4.93440000    1.24910000
 H                 -4.03890000   -1.04400000    1.35790000
 H                 -2.03100000   -1.72860000    2.63210000
 H                  1.69280000   -1.66490000    2.54360000
 H                  3.75990000   -0.95020000    1.39280000
 H                  5.46580000   -4.71420000    1.79770000
 H                  3.46400000   -5.59460000    2.95710000
 C                  9.37880000   -1.57840000    2.83900000
 C                  9.26480000   -0.19420000    3.12510000
 C                  8.09860000    0.48700000    2.66180000
 C                  7.90700000    1.87670000    2.94930000
 C                  8.92230000    2.54720000    3.60710000
 C                 10.09060000    1.88010000    4.03630000
 C                 10.25720000    0.53030000    3.82570000
 C                  6.64870000    2.57080000    2.60080000
 C                  6.65980000    3.81610000    1.95460000
 C                  5.47650000    4.49290000    1.68400000
 C                  4.23910000    3.93980000    2.05940000
 C                  3.00520000    4.61190000    1.84580000
 C                  1.89970000    5.12140000    1.75120000
 C                  0.56890000    5.57040000    1.69330000
 C                  0.04680000    6.85190000    1.61000000
 C                 -1.36320000    6.87740000    1.61140000
 C                 -1.92700000    5.61440000    1.69770000
 C                 -3.26470000    5.18820000    1.77040000
 C                 -4.35340000    4.64690000    1.88290000
 C                 -5.51540000    3.85960000    2.10720000
 C                 -6.80690000    4.24350000    1.70680000
 C                 -7.88960000    3.39880000    1.92680000
 C                 -7.71700000    2.15390000    2.54830000
 C                 -8.85000000    1.22900000    2.76190000
 C                 -8.76020000   -0.13600000    2.33850000
 C                 -9.80800000   -1.05690000    2.63890000
 C                 -9.64570000   -2.40050000    2.21550000
 C                 -8.53990000   -2.76750000    1.49620000
 N                 -7.58480000   -1.85890000    1.15280000
 C                 -7.68360000   -0.60690000    1.55820000
 C                -10.95860000   -0.59610000    3.32100000
 C                -11.05650000    0.73220000    3.66840000
 C                -10.00850000    1.63910000    3.39430000
 C                 -6.43010000    1.78890000    2.97730000
 C                 -5.34610000    2.62160000    2.75860000
 S                 -0.69990000    4.38950000    1.76890000
 C                  4.22470000    2.68500000    2.69990000
 C                  5.40960000    2.01800000    2.96740000
 C                  7.19650000   -0.24340000    1.86160000
 N                  7.35750000   -1.52500000    1.58520000
 C                  8.42090000   -2.20810000    2.08990000
 H                 10.23870000   -2.14360000    3.20170000
 H                  8.79950000    3.60790000    3.83640000
 H                 10.85940000    2.44710000    4.56570000
 H                 11.14830000    0.01060000    4.18310000
 H                  7.61210000    4.25460000    1.64820000
 H                  5.50100000    5.45890000    1.17700000
 H                  0.67800000    7.73820000    1.55010000
 H                 -1.96230000    7.78620000    1.55580000
 H                 -6.95560000    5.20210000    1.20710000
 H                 -8.88360000    3.69760000    1.58610000
 H                -10.40920000   -3.14420000    2.44880000
 H                 -8.38610000   -3.79060000    1.14980000
 H                 -6.89910000    0.07970000    1.23610000
 H                -11.76000000   -1.29930000    3.55550000
 H                -11.94810000    1.09450000    4.18470000
 H                -10.09960000    2.67680000    3.72230000
 H                 -6.28050000    0.84260000    3.50230000
 H                 -4.35090000    2.32600000    3.09520000
 H                  3.27180000    2.25030000    3.00710000
 H                  5.37520000    1.06710000    3.50400000
 H                  6.33840000    0.25810000    1.40980000
 H                  8.47830000   -3.26910000    1.84420000
 C                  9.64560000   -2.40040000   -2.21550000
 C                  9.80790000   -1.05680000   -2.63880000
 C                  8.76010000   -0.13590000   -2.33830000
 C                  8.85000000    1.22910000   -2.76160000
 C                 10.00850000    1.63920000   -3.39400000
 C                 11.05640000    0.73240000   -3.66820000
 C                 10.95850000   -0.59600000   -3.32080000
 C                  7.71700000    2.15400000   -2.54800000
 C                  6.43010000    1.78900000   -2.97700000
 C                  5.34610000    2.62180000   -2.75830000
 C                  5.51550000    3.85990000   -2.10690000
 C                  4.35350000    4.64720000   -1.88280000
 C                  3.26480000    5.18850000   -1.77020000
 C                  1.92710000    5.61470000   -1.69740000
 C                  1.36330000    6.87770000   -1.61090000
 C                 -0.04670000    6.85220000   -1.60950000
 C                 -0.56880000    5.57060000   -1.69300000
 C                 -1.89950000    5.12170000   -1.75090000
 C                 -3.00500000    4.61210000   -1.84560000
 C                 -4.23890000    3.94000000   -2.05920000
 C                 -4.22450000    2.68510000   -2.69970000
 C                 -5.40940000    2.01820000   -2.96720000
 C                 -6.64850000    2.57100000   -2.60080000
 C                 -7.90680000    1.87700000   -2.94940000
 C                 -8.09850000    0.48730000   -2.66190000
 C                 -9.26470000   -0.19400000   -3.12530000
 C                 -9.37870000   -1.57810000   -2.83920000
 C                 -8.42090000   -2.20790000   -2.08990000
 N                 -7.35750000   -1.52480000   -1.58510000
 C                 -7.19650000   -0.24320000   -1.86160000
 C                -10.25700000    0.53060000   -3.82610000
 C                -10.09030000    1.88040000   -4.03660000
 C                 -8.92200000    2.54750000   -3.60730000
 C                 -6.65960000    3.81630000   -1.95460000
 C                 -5.47630000    4.49310000   -1.68400000
 S                  0.70010000    4.38980000   -1.76860000
 C                  6.80700000    4.24370000   -1.70660000
 C                  7.88970000    3.39900000   -1.92650000
 C                  7.68350000   -0.60680000   -1.55810000
 N                  7.58470000   -1.85890000   -1.15270000
 C                  8.53970000   -2.76750000   -1.49620000
 H                 10.40910000   -3.14420000   -2.44890000
 H                 10.09960000    2.67690000   -3.72200000
 H                 11.94800000    1.09470000   -4.18440000
 H                 11.75990000   -1.29920000   -3.55540000
 H                  6.28050000    0.84280000   -3.50200000
 H                  4.35090000    2.32620000   -3.09500000
 H                  1.96240000    7.78650000   -1.55530000
 H                 -0.67790000    7.73840000   -1.54960000
 H                 -3.27150000    2.25050000   -3.00680000
 H                 -5.37490000    1.06730000   -3.50380000
 H                -10.23860000   -2.14330000   -3.20190000
 H                 -8.47840000   -3.26880000   -1.84420000
 H                 -6.33840000    0.25830000   -1.40970000
 H                -11.14800000    0.01090000   -4.18350000
 H                -10.85900000    2.44740000   -4.56610000
 H                 -8.79920000    3.60810000   -3.83660000
 H                 -7.61190000    4.25490000   -1.64830000
 H                 -5.50090000    5.45910000   -1.17690000
 H                  6.95570000    5.20230000   -1.20700000
 H                  8.88360000    3.69770000   -1.58590000
 H                  6.89900000    0.07980000   -1.23590000
 H                  8.38590000   -3.79060000   -1.15000000

 1 12 1.0 42 1.0 91 1.0 154 1.0
 2 18 1.0 48 1.0 102 1.0 165 1.0
 3 4 1.5 8 1.5 21 1.0
 4 5 1.5 22 1.0
 5 6 1.5 15 1.0
 6 7 1.5 23 1.0
 7 8 1.5 9 1.0
 8 24 1.0
 9 10 1.5 14 1.5
 10 11 2.0 25 1.0
 11 12 1.5 26 1.0
 12 13 1.5
 13 14 2.0 27 1.0
 14 28 1.0
 15 16 1.5 20 1.5
 16 17 1.5 29 1.0
 17 18 1.5 30 1.0
 18 19 1.5
 19 20 2.0 31 1.0
 20 32 1.0
 21
 22
 23
 24
 25
 26
 27
 28
 29
 30
 31
 32
 33 34 1.5 38 1.5 51 1.0
 34 35 1.5 52 1.0
 35 36 1.5 45 1.0
 36 37 1.5 53 1.0
 37 38 1.5 39 1.0
 38 54 1.0
 39 40 1.5 44 1.5
 40 41 1.5 55 1.0
 41 42 1.5 56 1.0
 42 43 1.5
 43 44 2.0 57 1.0
 44 58 1.0
 45 46 1.5 50 1.5
 46 47 2.0 59 1.0
 47 48 1.5 60 1.0
 48 49 1.5
 49 50 2.0 61 1.0
 50 62 1.0
 51
 52
 53
 54
 55
 56
 57
 58
 59
 60
 61
 62
 63 64 1.5 103 2.0 104 1.0
 64 65 1.5 69 1.5
 65 66 1.5 101 1.5
 66 67 2.0 70 1.0
 67 68 1.5 105 1.0
 68 69 2.0 106 1.0
 69 107 1.0
 70 71 1.5 100 1.5
 71 72 1.5 108 1.0
 72 73 1.5 109 1.0
 73 74 1.5 99 1.5
 74 75 3.0
 75 76 1.5
 76 77 1.5 98 1.0
 77 78 1.5 110 1.0
 78 79 2.0 111 1.0
 79 80 1.5 98 1.0
 80 81 3.0
 81 82 1.5
 82 83 1.5 97 1.5
 83 84 1.5 112 1.0
 84 85 1.5 113 1.0
 85 86 1.0 96 1.5
 86 87 1.5 95 2.0
 87 88 1.5 92 1.5
 88 89 1.5 93 1.5
 89 90 2.0 114 1.0
 90 91 1.5 115 1.0
 91 92 2.0
 92 116 1.0
 93 94 2.0 117 1.0
 94 95 1.5 118 1.0
 95 119 1.0
 96 97 2.0 120 1.0
 97 121 1.0
 98
 99 100 2.0 122 1.0
 100 123 1.0
 101 102 2.0 124 1.0
 102 103 1.5
 103 125 1.0
 104
 105
 106
 107
 108
 109
 110
 111
 112
 113
 114
 115
 116
 117
 118
 119
 120
 121
 122
 123
 124
 125
 126 127 1.5 166 2.0 167 1.0
 127 128 1.5 132 1.5
 128 129 1.5 164 1.5
 129 130 2.0 133 1.0
 130 131 1.5 168 1.0
 131 132 2.0 169 1.0
 132 170 1.0
 133 134 1.5 163 1.5
 134 135 2.0 171 1.0
 135 136 1.5 172 1.0
 136 137 1.5 162 1.5
 137 138 3.0
 138 139 1.5
 139 140 2.0 161 1.0
 140 141 1.5 173 1.0
 141 142 1.5 174 1.0
 142 143 1.5 161 1.0
 143 144 3.0
 144 145 1.5
 145 146 1.5 160 1.5
 146 147 2.0 175 1.0
 147 148 1.5 176 1.0
 148 149 1.0 159 1.5
 149 150 1.5 158 2.0
 150 151 1.5 155 1.5
 151 152 1.5 156 1.5
 152 153 2.0 177 1.0
 153 154 1.5 178 1.0
 154 155 2.0
 155 179 1.0
 156 157 2.0 180 1.0
 157 158 1.5 181 1.0
 158 182 1.0
 159 160 1.5 183 1.0
 160 184 1.0
 161
 162 163 1.5 185 1.0
 163 186 1.0
 164 165 2.0 187 1.0
 165 166 1.5
 166 188 1.0
 167
 168
 169
 170
 171
 172
 173
 174
 175
 176
 177
 178
 179
 180
 181
 182
 183
 184
 185
 186
 187
 188

