260
	Energy:    1477.5806375
Zn         5.50173        5.50305       38.91139
O          3.69979        3.36749       34.59431
C          4.85324        3.73654       33.99186
N          4.94879        7.10585       39.88531
N          3.89994        5.87386       37.77066
C          5.46029        7.76021       41.04727
C          5.46522        7.11363       42.28417
H          5.08475        6.11705       42.37734
C          5.94338        7.76382       43.42323
H          5.93505        7.25098       44.37483
C          6.43913        9.06585       43.33253
H          6.83360        9.55624       44.21246
C          6.41595        9.73671       42.10843
H          6.79090       10.75107       42.04113
C          5.90943        9.09805       40.97103
H          5.89208        9.63605       40.03061
C          4.02059        7.80185       39.06066
H          3.71736        8.82143       39.29477
C          3.48943        7.15570       38.01254
C          2.58546        7.78731       37.13737
H          2.32178        8.83780       37.27318
C          2.07618        7.08159       36.03617
H          1.44573        7.62532       35.34247
C          2.42231        5.71662       35.82384
C          3.36306        5.14802       36.74530
H          3.70851        4.15894       36.62702
C          1.88974        4.93678       34.58817
C          0.74755        5.37971       33.88404
H          0.17813        6.23192       34.24049
C          0.31180        4.70118       32.71985
C         -0.88642        5.05734       32.09322
H         -1.50499        5.84223       32.50586
C         -1.31525        4.35714       30.95619
H         -2.26323        4.58509       30.50495
C         -0.52478        3.35317       30.39918
H         -0.83375        2.80811       29.52181
C          0.66683        3.01310       30.98641
H          1.24642        2.21611       30.54094
C          1.07601        3.64341       32.16326
C          2.21880        3.20191       32.79692
C          2.57069        3.79541       34.04362
O          8.37733        4.57678       34.78185
C          7.69481        5.56741       34.24205
N          4.46298        4.21708       40.07161
N          5.91880        3.82642       37.85786
C          3.73693        4.28026       41.29467
C          2.68374        5.17311       41.44216
H          2.39597        5.79576       40.61021
C          1.98075        5.23209       42.65020
H          1.15967        5.92327       42.75390
C          2.34092        4.40784       43.72403
H          1.81659        4.48303       44.66739
C          3.36524        3.47442       43.57320
H          3.63443        2.82186       44.39920
C          4.04356        3.38581       42.35579
H          4.82362        2.64050       42.25863
C          4.45874        2.94071       39.42285
H          3.87510        2.11018       39.83035
C          5.17836        2.76970       38.31197
C          5.17664        1.53943       37.60931
H          4.53728        0.71063       37.92711
C          5.98047        1.38491       36.46508
H          5.90130        0.45193       35.91615
C          6.84701        2.43625       36.04929
C          6.74943        3.66353       36.81193
H          7.28034        4.51208       36.58564
C          7.74042        2.31592       34.75409
C          7.92881        1.10050       34.07530
H          7.53708        0.17243       34.48491
C          8.70542        1.07652       32.88373
C          9.06642       -0.13605       32.30644
H          8.76519       -1.06520       32.76909
C          9.88402       -0.14585       31.16717
H         10.21356       -1.07544       30.75153
C         10.29505        1.04546       30.56767
H         10.92889        1.06415       29.69893
C          9.92602        2.24370       31.10322
H         10.29484        3.14658       30.63702
C          9.17182        2.27963       32.26540
C          8.98802        3.48979       32.86077
C          8.38183        3.45336       34.15383
O          7.89052        4.52208       30.51726
C          6.69328        4.95460       30.91754
N          5.34975        7.21406       24.96078
N          6.68530        6.59636       27.23122
C          5.08927        7.58731       23.60215
C          3.87480        7.26896       23.02204
H          3.14171        6.74632       23.60885
C          3.58315        7.67317       21.71482
H          2.62356        7.43131       21.28662
C          4.51902        8.39527       20.96640
H          4.28878        8.69319       19.95049
C          5.74167        8.74753       21.53596
H          6.46267        9.31770       20.95438
C          6.02633        8.36816       22.85598
H          6.98302        8.66366       23.27827
C          5.92009        8.24063       25.78580
H          5.88600        9.28301       25.46721
C          6.57447        7.91521       26.90873
C          7.16655        8.90043       27.73110
H          7.01127        9.96010       27.52106
C          7.93287        8.51836       28.85137
H          8.28400        9.30923       29.50699
C          8.17911        7.13216       29.11674
C          7.52928        6.21567       28.24218
H          7.66116        5.19984       28.42414
C          8.98384        6.62115       30.36490
C          9.80452        7.49878       31.05477
H          9.91442        8.52120       30.71134
C         10.50539        7.06713       32.19148
C         11.39466        7.94234       32.79937
H         11.54673        8.93357       32.38802
C         12.11911        7.52551       33.91273
H         12.84707        8.18412       34.34594
C         11.90601        6.26175       34.46827
H         12.44796        5.93719       35.33718
C         11.00076        5.39336       33.89954
H         10.84763        4.42204       34.34788
C         10.32591        5.75690       32.74315
C          9.45399        4.85252       32.15428
C          8.84922        5.28398       30.94264
O          3.36718        3.69955       30.30955
C          3.73790        4.85255       30.91182
N          7.10589        4.94882       25.01858
N          5.87374        3.89997       27.13315
C          7.76021        5.46020       23.85656
C          7.11362        5.46517       22.61967
H          6.11703        5.08474       22.52651
C          7.76380        5.94337       21.48062
H          7.25095        5.93507       20.52903
C          9.06583        6.43913       21.57133
H          9.55619        6.83365       20.69141
C          9.73669        6.41593       22.79541
H         10.75104        6.79092       22.86273
C          9.09805        5.90937       23.93280
H          9.63603        5.89206       24.87322
C          7.80181        4.02058       25.84324
H          8.82138        3.71731       25.60916
C          7.15558        3.48943       26.89133
C          7.78713        2.58544       27.76653
H          8.83763        2.32177       27.63079
C          7.08132        2.07610       28.86765
H          7.62500        1.44563       29.56136
C          5.71635        2.42223       29.07992
C          5.14786        3.36311       28.15853
H          4.15877        3.70857       28.27681
C          4.93640        1.88947       30.31544
C          5.37934        0.74733       31.01959
H          6.23162        0.17798       30.66322
C          4.70082        0.31163       32.18381
C          5.05708       -0.88646       32.81052
H          5.84199       -1.50501       32.39788
C          4.35699       -1.31519       33.94764
H          4.58502       -2.26311       34.39892
C          3.35309       -0.52463       34.50472
H          2.80815       -0.83352       35.38217
C          3.01294        0.66694       33.91740
H          2.21605        1.24667       34.36288
C          3.64308        1.07590       32.74040
C          3.20161        2.21862       32.10667
C          3.79503        2.57034       30.85998
Zn         5.50309        5.50178       25.99239
O          4.57683        8.37707       30.12220
C          5.56781        7.69527       30.66221
N          4.21710        4.46300       24.83219
N          3.82645        5.91886       27.04591
C          4.28028        3.73696       23.60911
C          5.17311        2.68375       23.46168
H          5.79570        2.39597       24.29366
C          5.23209        1.98072       22.25367
H          5.92325        1.15962       22.15001
C          4.40788        2.34088       21.17981
H          4.48309        1.81653       20.23646
C          3.47447        3.36522       21.33059
H          2.82193        3.63439       20.50456
C          3.38585        4.04358       22.54798
H          2.64052        4.82363       22.64511
C          2.94073        4.45876       25.48092
H          2.11022        3.87508       25.07344
C          2.76973        5.17838       26.59181
C          1.53949        5.17655       27.29450
H          0.71068        4.53721       26.97668
C          1.38501        5.98026       28.43883
H          0.45203        5.90103       28.98777
C          2.43638        6.84673       28.85470
C          3.66363        6.74929       28.09200
H          4.51223        7.28018       28.31837
C          2.31598        7.74015       30.14985
C          1.10046        7.92875       30.82841
H          0.17241        7.53711       30.41867
C          1.07637        8.70547       32.01990
C         -0.13625        9.06656       32.59705
H         -1.06536        8.76531       32.13436
C         -0.14613        9.88419       33.73631
H         -1.07574       10.21373       34.15189
C          1.04513       10.29520       34.33590
H          1.06378       10.92907       35.20463
C          2.24340        9.92616       33.80044
H          3.14625       10.29496       34.26673
C          2.27941        9.17188       32.63832
C          3.48962        8.98797       32.04310
C          3.45338        8.38154       30.75018
O          4.52169        7.89004       34.38613
C          4.95397        6.69271       33.98580
N          7.21406        5.34956       39.94295
N          6.59622        6.68515       37.67255
C          7.58728        5.08928       41.30163
C          7.26899        3.87480       41.88172
H          6.74637        3.14171       41.29490
C          7.67317        3.58313       43.18893
H          7.43133        2.62350       43.61707
C          8.39522        4.51899       43.93739
H          8.69315        4.28871       44.95328
C          8.74745        5.74168       43.36786
H          9.31761        6.46266       43.94948
C          8.36810        6.02637       42.04782
H          8.66362        6.98307       41.62555
C          8.24058        5.92004       39.11795
H          9.28296        5.88597       39.43651
C          7.91508        6.57439       37.99502
C          8.90024        7.16647       37.17259
H          9.95992        7.01128       37.38261
C          8.51807        7.93266       36.05227
H          9.30891        8.28389       35.39667
C          7.13186        8.17876       35.78689
C          6.21543        7.52892       36.66143
H          5.19960        7.66071       36.47935
C          6.62080        8.98355       34.53885
C          7.49838        9.80450       33.84921
H          8.52077        9.91442       34.19270
C          7.06678       10.50550       32.71256
C          7.94210       11.39466       32.10464
H          8.93339       11.54657       32.51592
C          7.52540       12.11905       30.99120
H          8.18414       12.84684       30.55789
C          6.26160       11.90606       30.43566
H          5.93718       12.44792       29.56664
C          5.39308       11.00095       31.00446
H          4.42180       10.84778       30.55606
C          5.75655       10.32612       32.16089
C          4.85219        9.45405       32.74965
C          5.28370        8.84884       33.96098
H          5.13137        6.07225       34.87015
H          5.33188        6.17961       34.86119
H          5.85601        6.77982       33.31858
H          5.57181        4.00677       34.72717
H          4.61767        4.58805       33.40667
H          5.23778        3.06588       33.23041
H          5.97895        7.28860       29.81155
H          5.15049        6.97779       31.39964
H          6.35192        8.31087       31.07346
H          6.07312        5.13259       30.03306
H          6.18010        5.33301       30.04240
H          6.78035        5.85619       31.58541
H          4.00777        5.57119       30.17641
H          4.58955        4.61575       31.49648
H          3.06837        5.23759       31.67398
H          7.28734        5.97808       35.09263
H          6.97771        5.14992       33.50429
H          8.31020        6.35166       33.83086
