      43
SCF Done               2.29203747
Zn           -0.218600000         0.218600000         0.218600000
C             0.902320669         4.926829638         0.788961560
C             1.841007728         3.890532022         0.782791674
C             1.405135027         2.569073781         0.607095220
H             2.891845058         4.119111552         0.914379125
N             0.068769053         2.327441090         0.445446745
C             2.328534661         1.503367832         0.600287913
C            -0.860709146         3.318402531         0.448481652
C            -0.455678507         4.642919149         0.621344752
H            -1.907887641         3.081991298         0.320261678
H            -1.186078195         5.441511105         0.626333097
H             1.227670628         5.950191394         0.924254232
N             1.910221306         0.225454068         0.433835454
H             3.385850258         1.701207203         0.730575690
Br            3.086621910        -1.254493232         0.424203188
C            -0.717555092        -1.085704455         4.882796953
C            -0.693281972        -1.984767804         3.812182865
C            -0.542142985        -1.495372100         2.506450762
H            -0.791814916        -3.046773323         4.002599796
N            -0.421795599        -0.147279605         2.313876471
C            -0.516533657        -2.378934857         1.407620328
C            -0.442698818         0.744646506         3.338546249
C            -0.591973208         0.286180716         4.648379435
H            -0.346315862         1.803070320         3.140192703
H            -0.610795357         0.986108278         5.473611306
H            -0.834062237        -1.452570181         5.894351973
N            -0.371432367        -1.916459558         0.141993726
H            -0.612669276        -3.446229141         1.568246250
H            -0.349536967        -2.548831281        -0.687965064
C            -4.903496341         0.627130608        -1.041741505
C            -3.838401509         0.663405790        -1.946979798
C            -2.525811470         0.532277036        -1.470179295
H            -4.038288273         0.793014292        -3.003895921
N            -2.321362628         0.371299492        -0.128137264
C            -1.432169419         0.568711140        -2.359834476
C            -3.340437683         0.333549976         0.769667827
C            -4.656855071         0.461638328         0.323765227
H            -3.132598046         0.207564691         1.823163555
H            -5.477756622         0.433880896         1.028479979
H            -5.920231971         0.727876217        -1.398838850
N            -0.159929629         0.446225446        -1.909126638
H            -1.602156676         0.697213676        -3.422285676
H             0.666585373         0.471960585        -2.545886823
