%chk=cis_l1_lb_FINAL.chk
%nprocshared=48
%mem=120GB
# SP PBE1PBE/def2svp empiricaldispersion=GD3BJ scrf=(solvent=dmso)

cis_l1_lb

4 1
 Pd                 7.22030000   -1.72310000    0.30220000
 Pd                -7.20000000   -1.76500000    0.16160000
 C                  4.88420000   -2.34900000   -1.34150000
 N                  5.98430000   -2.89500000   -0.80270000
 C                  6.19880000   -4.21090000   -0.94260000
 C                  5.30050000   -5.03370000   -1.60300000
 C                  4.12280000   -4.49380000   -2.14000000
 C                  3.09230000   -5.33340000   -2.77710000
 C                  3.44060000   -6.48410000   -3.51790000
 C                  2.48000000   -7.29810000   -4.11130000
 C                  1.15180000   -6.93500000   -3.93070000
 O                  0.06560000   -7.60530000   -4.40370000
 C                 -1.03340000   -6.92480000   -3.97690000
 C                 -2.35620000   -7.27630000   -4.21210000
 C                 -3.33320000   -6.45550000   -3.65620000
 C                 -3.00570000   -5.30720000   -2.90200000
 C                 -4.05310000   -4.46930000   -2.29070000
 C                 -3.87500000   -3.08550000   -2.14020000
 C                 -4.82860000   -2.33440000   -1.47790000
 N                 -5.94000000   -2.88670000   -0.97000000
 C                 -6.15530000   -4.19920000   -1.13800000
 C                 -5.24500000   -5.01400000   -1.79110000
 C                 -1.66270000   -4.97060000   -2.69440000
 C                 -0.67380000   -5.79070000   -3.22710000
 C                  0.77140000   -5.79810000   -3.19550000
 C                  1.74460000   -4.98860000   -2.61920000
 C                  3.94320000   -3.10790000   -2.01200000
 H                  4.75960000   -1.26990000   -1.22800000
 H                  7.10860000   -4.61270000   -0.49210000
 H                  5.50890000   -6.10270000   -1.65720000
 H                  4.49450000   -6.73590000   -3.65200000
 H                  2.75600000   -8.17980000   -4.69070000
 H                 -2.61580000   -8.15560000   -4.80250000
 H                 -4.38290000   -6.70040000   -3.83030000
 H                 -2.99550000   -2.58160000   -2.54160000
 H                 -4.70270000   -1.25800000   -1.34330000
 H                 -7.07630000   -4.60460000   -0.71460000
 H                 -5.45450000   -6.08160000   -1.86580000
 H                 -1.39010000   -4.10150000   -2.09330000
 H                  1.45520000   -4.12140000   -2.02280000
 H                  3.07440000   -2.60820000   -2.44110000
 C                  4.91750000   -1.27840000    2.05760000
 N                  6.00370000   -2.04850000    1.89570000
 C                  6.18710000   -3.10150000    2.70510000
 C                  5.26530000   -3.44490000    3.68080000
 C                  4.09460000   -2.68730000    3.83460000
 C                  3.03500000   -3.07630000    4.78360000
 C                  3.35620000   -3.68220000    6.01790000
 C                  2.37450000   -4.09570000    6.91240000
 C                  1.05450000   -3.90220000    6.52780000
 O                 -0.04350000   -4.27020000    7.24110000
 C                 -1.12900000   -3.93360000    6.49340000
 C                 -2.45390000   -4.16530000    6.83700000
 C                 -3.41910000   -3.77520000    5.91440000
 C                 -3.07700000   -3.15590000    4.69260000
 C                 -4.12090000   -2.77900000    3.72140000
 C                 -3.99810000   -1.62300000    2.93550000
 C                 -4.95110000   -1.33830000    1.97400000
 N                 -6.00550000   -2.14030000    1.76030000
 C                 -6.16880000   -3.22810000    2.52610000
 C                 -5.25880000   -3.57200000    3.51290000
 C                 -1.73180000   -2.92330000    4.37880000
 C                 -0.75090000   -3.32380000    5.28290000
 C                  0.69710000   -3.30340000    5.30570000
 C                  1.69380000   -2.87740000    4.43150000
 C                  3.95330000   -1.56220000    3.00810000
 H                  4.81590000   -0.41350000    1.39780000
 H                  7.08860000   -3.69500000    2.54060000
 H                  5.44660000   -4.33490000    4.28450000
 H                  4.40470000   -3.81480000    6.29210000
 H                  2.62700000   -4.55530000    7.86860000
 H                 -2.72250000   -4.63430000    7.78420000
 H                 -4.47170000   -3.93540000    6.15620000
 H                 -3.16390000   -0.93390000    3.07150000
 H                 -4.87010000   -0.44470000    1.35080000
 H                 -7.04390000   -3.84820000    2.32140000
 H                 -5.42260000   -4.48670000    4.08380000
 H                 -1.45270000   -2.47320000    3.42410000
 H                  1.43020000   -2.43360000    3.46980000
 H                  3.09310000   -0.89840000    3.09950000
 C                 10.47260000   -0.08940000    2.49030000
 C                  9.58760000   -0.93580000    1.87990000
 N                  8.41340000   -0.48000000    1.36580000
 C                  8.07830000    0.79210000    1.48740000
 C                  8.89250000    1.73660000    2.14860000
 C                  8.51240000    3.10860000    2.30530000
 C                  7.16600000    3.61190000    1.95420000
 C                  7.02440000    4.82530000    1.26240000
 C                  5.77160000    5.38150000    1.04240000
 C                  4.61210000    4.73130000    1.50400000
 C                  3.33540000    5.34620000    1.36200000
 C                  2.25620000    5.90810000    1.30620000
 C                  1.02830000    6.64490000    1.30020000
 N                 -0.11620000    5.95210000    1.29520000
 C                 -1.26630000    6.63640000    1.31140000
 C                 -2.48740000    5.88890000    1.34080000
 C                 -3.55780000    5.31360000    1.42280000
 C                 -4.81820000    4.67120000    1.58570000
 C                 -6.00240000    5.30220000    1.16130000
 C                 -7.23630000    4.70760000    1.38790000
 C                 -7.33250000    3.47330000    2.04910000
 C                 -8.65650000    2.91160000    2.39660000
 C                 -9.60400000    3.71870000    3.00160000
 C                -10.84510000    3.20760000    3.43810000
 C                -11.15240000    1.87510000    3.29070000
 C                -10.22970000    1.01270000    2.65410000
 C                -10.48860000   -0.36610000    2.45380000
 C                 -9.58140000   -1.14540000    1.78860000
 N                 -8.43560000   -0.61690000    1.27850000
 C                 -8.14940000    0.65950000    1.45810000
 C                 -8.98810000    1.53600000    2.17870000
 C                 -6.14660000    2.83730000    2.45350000
 C                 -4.90810000    3.41930000    2.22070000
 C                 -1.32130000    8.04160000    1.33080000
 C                 -0.12690000    8.75090000    1.34050000
 C                  1.07240000    8.05050000    1.32400000
 C                  4.74630000    3.49660000    2.16400000
 C                  6.00390000    2.95330000    2.39040000
 C                  9.43750000    3.97800000    2.85710000
 C                 10.70350000    3.53670000    3.29740000
 C                 11.05960000    2.21150000    3.20760000
 C                 10.16120000    1.28580000    2.62770000
 H                 11.42090000   -0.47620000    2.86630000
 H                  9.78970000   -2.00150000    1.76690000
 H                  7.13720000    1.09890000    1.02700000
 H                  7.91320000    5.34280000    0.89520000
 H                  5.68070000    6.33290000    0.51540000
 H                 -5.94540000    6.26800000    0.65610000
 H                 -8.14500000    5.20990000    1.04930000
 H                 -9.36960000    4.76950000    3.18360000
 H                -11.55530000    3.88170000    3.92160000
 H                -12.09950000    1.47080000    3.65310000
 H                -11.41410000   -0.80880000    2.82520000
 H                 -9.74150000   -2.21170000    1.62280000
 H                 -7.23100000    1.02880000    0.99810000
 H                 -6.19360000    1.89300000    3.00050000
 H                 -3.99850000    2.92150000    2.56110000
 H                 -2.28650000    8.54910000    1.34280000
 H                 -0.13080000    9.84260000    1.35880000
 H                  2.03380000    8.56530000    1.32900000
 H                  3.85650000    2.98320000    2.53260000
 H                  6.08330000    2.02560000    2.96120000
 H                  9.16590000    5.02660000    2.99390000
 H                 11.39360000    4.25980000    3.73730000
 H                 12.02650000    1.86050000    3.57330000
 C                 10.27710000   -1.64170000   -2.68020000
 C                  9.49920000   -1.98400000   -1.60590000
 N                  8.34940000   -1.31330000   -1.32380000
 C                  7.96570000   -0.30120000   -2.07910000
 C                  8.71040000    0.15290000   -3.18570000
 C                  8.27990000    1.25870000   -3.98430000
 C                  7.05600000    2.01750000   -3.63740000
 C                  6.01360000    2.12580000   -4.56820000
 C                  4.84710000    2.81030000   -4.25350000
 C                  4.69500000    3.41790000   -2.99440000
 C                  3.49290000    4.12310000   -2.68790000
 C                  2.45330000    4.72160000   -2.47810000
 C                  1.24240000    5.46750000   -2.28750000
 N                  0.08720000    4.80290000   -2.40910000
 C                 -1.05470000    5.48630000   -2.27290000
 C                 -2.28020000    4.76130000   -2.45130000
 C                 -3.33220000    4.18220000   -2.65340000
 C                 -4.54870000    3.50200000   -2.96090000
 C                 -4.72420000    2.93440000   -4.23550000
 C                 -5.90540000    2.27970000   -4.55750000
 C                 -6.94030000    2.16160000   -3.61940000
 C                 -8.18440000    1.44570000   -3.98680000
 C                 -8.93040000    1.84460000   -5.07950000
 C                -10.12210000    1.17750000   -5.44200000
 C                -10.58060000    0.09940000   -4.72080000
 C                 -9.83910000   -0.36290000   -3.60810000
 C                -10.22990000   -1.48420000   -2.83430000
 C                 -9.45680000   -1.89770000   -1.78210000
 N                 -8.29830000   -1.26030000   -1.46140000
 C                 -7.89760000   -0.21470000   -2.16130000
 C                 -8.63300000    0.30860000   -3.24390000
 C                 -6.76690000    2.73520000   -2.34970000
 C                 -5.59000000    3.39740000   -2.02200000
 C                 -1.09100000    6.86590000   -2.00840000
 C                  0.11330000    7.54830000   -1.89080000
 C                  1.30470000    6.84590000   -2.02520000
 C                  5.74580000    3.32610000   -2.06480000
 C                  6.90750000    2.63490000   -2.38480000
 C                  9.02590000    1.58370000   -5.10090000
 C                 10.20220000    0.87410000   -5.43240000
 C                 10.64630000   -0.17080000   -4.65500000
 C                  9.90300000   -0.55890000   -3.51540000
 H                 11.18480000   -2.20890000   -2.89220000
 H                  9.75770000   -2.80950000   -0.94130000
 H                  7.02470000    0.18460000   -1.81620000
 H                  6.11300000    1.64730000   -5.54500000
 H                  4.03850000    2.87740000   -4.98360000
 H                 -3.92290000    3.01090000   -4.97250000
 H                 -6.02410000    1.83440000   -5.54780000
 H                 -8.60230000    2.70790000   -5.66240000
 H                -10.68760000    1.53510000   -6.30520000
 H                -11.50550000   -0.41060000   -4.99690000
 H                -11.14690000   -2.02400000   -3.07580000
 H                 -9.72820000   -2.75470000   -1.16430000
 H                 -6.95140000    0.24350000   -1.86840000
 H                 -7.57060000    2.68040000   -1.61060000
 H                 -5.47510000    3.84440000   -1.03340000
 H                 -2.04840000    7.37820000   -1.90710000
 H                  0.12360000    8.62160000   -1.69350000
 H                  2.27180000    7.34190000   -1.93510000
 H                  5.64900000    3.80630000   -1.09000000
 H                  7.71890000    2.58860000   -1.65370000
 H                  8.71240000    2.42180000   -5.72700000
 H                 10.76930000    1.17320000   -6.31660000
 H                 11.56110000   -0.71040000   -4.90730000

 1 4 1.0 43 1.0 83 1.0 148 1.0
 2 20 1.0 59 1.0 109 1.0 174 1.0
 3 4 1.5 27 2.0 28 1.0
 4 5 1.5
 5 6 2.0 29 1.0
 6 7 1.5 30 1.0
 7 8 1.0 27 1.5
 8 9 1.5 26 1.5
 9 10 1.5 31 1.0
 10 11 1.5 32 1.0
 11 12 1.0 25 1.5
 12 13 1.0
 13 14 1.5 24 1.5
 14 15 1.5 33 1.0
 15 16 1.5 34 1.0
 16 17 1.0 23 1.5
 17 18 1.5 22 1.5
 18 19 2.0 35 1.0
 19 20 1.5 36 1.0
 20 21 1.5
 21 22 2.0 37 1.0
 22 38 1.0
 23 24 1.5 39 1.0
 24 25 1.5
 25 26 1.5
 26 40 1.0
 27 41 1.0
 28
 29
 30
 31
 32
 33
 34
 35
 36
 37
 38
 39
 40
 41
 42 43 1.5 66 2.0 67 1.0
 43 44 1.5
 44 45 2.0 68 1.0
 45 46 1.5 69 1.0
 46 47 1.0 66 1.5
 47 48 1.5 65 1.5
 48 49 1.5 70 1.0
 49 50 1.5 71 1.0
 50 51 1.0 64 1.5
 51 52 1.0
 52 53 1.5 63 1.5
 53 54 1.5 72 1.0
 54 55 1.5 73 1.0
 55 56 1.0 62 1.5
 56 57 1.5 61 1.5
 57 58 2.0 74 1.0
 58 59 1.5 75 1.0
 59 60 1.5
 60 61 2.0 76 1.0
 61 77 1.0
 62 63 1.5 78 1.0
 63 64 1.0
 64 65 1.5
 65 79 1.0
 66 80 1.0
 67
 68
 69
 70
 71
 72
 73
 74
 75
 76
 77
 78
 79
 80
 81 82 2.0 122 1.5 123 1.0
 82 83 1.5 124 1.0
 83 84 2.0
 84 85 1.5 125 1.0
 85 86 1.5 122 1.5
 86 87 1.0 119 2.0
 87 88 1.5 118 1.5
 88 89 1.5 126 1.0
 89 90 1.5 127 1.0
 90 91 1.5 117 1.5
 91 92 3.0
 92 93 1.5
 93 94 1.5 116 1.5
 94 95 1.5
 95 96 1.5 114 1.5
 96 97 3.0
 97 98 1.5
 98 99 1.5 113 1.5
 99 100 1.5 128 1.0
 100 101 1.5 129 1.0
 101 102 1.0 112 1.5
 102 103 2.0 111 1.5
 103 104 1.5 130 1.0
 104 105 2.0 131 1.0
 105 106 1.5 132 1.0
 106 107 1.5 111 1.5
 107 108 2.0 133 1.0
 108 109 1.5 134 1.0
 109 110 2.0
 110 111 1.5 135 1.0
 111
 112 113 1.5 136 1.0
 113 137 1.0
 114 115 1.5 138 1.0
 115 116 1.5 139 1.0
 116 140 1.0
 117 118 1.5 141 1.0
 118 142 1.0
 119 120 1.5 143 1.0
 120 121 2.0 144 1.0
 121 122 1.5 145 1.0
 122
 123
 124
 125
 126
 127
 128
 129
 130
 131
 132
 133
 134
 135
 136
 137
 138
 139
 140
 141
 142
 143
 144
 145
 146 147 2.0 187 1.5 188 1.0
 147 148 1.5 189 1.0
 148 149 2.0
 149 150 1.5 190 1.0
 150 151 1.5 187 1.5
 151 152 1.0 184 2.0
 152 153 1.5 183 1.5
 153 154 1.5 191 1.0
 154 155 1.5 192 1.0
 155 156 1.5 182 1.5
 156 157 3.0
 157 158 1.5
 158 159 1.5 181 1.5
 159 160 1.5
 160 161 1.5 179 1.5
 161 162 3.0
 162 163 1.5
 163 164 1.5 178 1.5
 164 165 1.5 193 1.0
 165 166 1.5 194 1.0
 166 167 1.0 177 1.5
 167 168 2.0 176 1.5
 168 169 1.5 195 1.0
 169 170 2.0 196 1.0
 170 171 1.5 197 1.0
 171 172 1.5 176 1.5
 172 173 2.0 198 1.0
 173 174 1.5 199 1.0
 174 175 2.0
 175 176 1.5 200 1.0
 176
 177 178 1.5 201 1.0
 178 202 1.0
 179 180 1.5 203 1.0
 180 181 1.5 204 1.0
 181 205 1.0
 182 183 1.5 206 1.0
 183 207 1.0
 184 185 1.5 208 1.0
 185 186 2.0 209 1.0
 186 187 1.5 210 1.0
 187
 188
 189
 190
 191
 192
 193
 194
 195
 196
 197
 198
 199
 200
 201
 202
 203
 204
 205
 206
 207
 208
 209
 210

