%nprocshared=48
%mem=120GB
%chk=cis_l1_lb.chk
# SP B97D3/def2svp scrf=(solvent=dmso)

cis_l1_lb

4 1
 Pd                 7.22000000   -1.72300000    0.30200000
 Pd                -7.20000000   -1.76500000    0.16200000
 C                  4.88400000   -2.34900000   -1.34200000
 N                  5.98400000   -2.89500000   -0.80300000
 C                  6.19900000   -4.21100000   -0.94300000
 C                  5.30000000   -5.03400000   -1.60300000
 C                  4.12300000   -4.49400000   -2.14000000
 C                  3.09200000   -5.33300000   -2.77700000
 C                  3.44100000   -6.48400000   -3.51800000
 C                  2.48000000   -7.29800000   -4.11100000
 C                  1.15200000   -6.93500000   -3.93100000
 O                  0.06600000   -7.60500000   -4.40400000
 C                 -1.03300000   -6.92500000   -3.97700000
 C                 -2.35600000   -7.27600000   -4.21200000
 C                 -3.33300000   -6.45600000   -3.65600000
 C                 -3.00600000   -5.30700000   -2.90200000
 C                 -4.05300000   -4.46900000   -2.29100000
 C                 -3.87500000   -3.08600000   -2.14000000
 C                 -4.82900000   -2.33400000   -1.47800000
 N                 -5.94000000   -2.88700000   -0.97000000
 C                 -6.15500000   -4.19900000   -1.13800000
 C                 -5.24500000   -5.01400000   -1.79100000
 C                 -1.66300000   -4.97100000   -2.69400000
 C                 -0.67400000   -5.79100000   -3.22700000
 C                  0.77100000   -5.79800000   -3.19500000
 C                  1.74500000   -4.98900000   -2.61900000
 C                  3.94300000   -3.10800000   -2.01200000
 H                  4.76000000   -1.27000000   -1.22800000
 H                  7.10900000   -4.61300000   -0.49200000
 H                  5.50900000   -6.10300000   -1.65700000
 H                  4.49500000   -6.73600000   -3.65200000
 H                  2.75600000   -8.18000000   -4.69100000
 H                 -2.61600000   -8.15600000   -4.80200000
 H                 -4.38300000   -6.70000000   -3.83000000
 H                 -2.99600000   -2.58200000   -2.54200000
 H                 -4.70300000   -1.25800000   -1.34300000
 H                 -7.07600000   -4.60500000   -0.71500000
 H                 -5.45500000   -6.08200000   -1.86600000
 H                 -1.39000000   -4.10200000   -2.09300000
 H                  1.45500000   -4.12100000   -2.02300000
 H                  3.07400000   -2.60800000   -2.44100000
 C                  4.91800000   -1.27800000    2.05800000
 N                  6.00400000   -2.04900000    1.89600000
 C                  6.18700000   -3.10200000    2.70500000
 C                  5.26500000   -3.44500000    3.68100000
 C                  4.09500000   -2.68700000    3.83500000
 C                  3.03500000   -3.07600000    4.78400000
 C                  3.35600000   -3.68200000    6.01800000
 C                  2.37500000   -4.09600000    6.91200000
 C                  1.05400000   -3.90200000    6.52800000
 O                 -0.04300000   -4.27000000    7.24100000
 C                 -1.12900000   -3.93400000    6.49300000
 C                 -2.45400000   -4.16500000    6.83700000
 C                 -3.41900000   -3.77500000    5.91400000
 C                 -3.07700000   -3.15600000    4.69300000
 C                 -4.12100000   -2.77900000    3.72100000
 C                 -3.99800000   -1.62300000    2.93500000
 C                 -4.95100000   -1.33800000    1.97400000
 N                 -6.00500000   -2.14000000    1.76000000
 C                 -6.16900000   -3.22800000    2.52600000
 C                 -5.25900000   -3.57200000    3.51300000
 C                 -1.73200000   -2.92300000    4.37900000
 C                 -0.75100000   -3.32400000    5.28300000
 C                  0.69700000   -3.30300000    5.30600000
 C                  1.69400000   -2.87700000    4.43100000
 C                  3.95300000   -1.56200000    3.00800000
 H                  4.81600000   -0.41400000    1.39800000
 H                  7.08900000   -3.69500000    2.54100000
 H                  5.44700000   -4.33500000    4.28500000
 H                  4.40500000   -3.81500000    6.29200000
 H                  2.62700000   -4.55500000    7.86900000
 H                 -2.72300000   -4.63400000    7.78400000
 H                 -4.47200000   -3.93500000    6.15600000
 H                 -3.16400000   -0.93400000    3.07200000
 H                 -4.87000000   -0.44500000    1.35100000
 H                 -7.04400000   -3.84800000    2.32100000
 H                 -5.42300000   -4.48700000    4.08400000
 H                 -1.45300000   -2.47300000    3.42400000
 H                  1.43000000   -2.43400000    3.47000000
 H                  3.09300000   -0.89800000    3.09900000
 C                 10.47300000   -0.08900000    2.49000000
 C                  9.58800000   -0.93600000    1.88000000
 N                  8.41300000   -0.48000000    1.36600000
 C                  8.07800000    0.79200000    1.48700000
 C                  8.89200000    1.73700000    2.14900000
 C                  8.51200000    3.10900000    2.30500000
 C                  7.16600000    3.61200000    1.95400000
 C                  7.02400000    4.82500000    1.26200000
 C                  5.77200000    5.38100000    1.04200000
 C                  4.61200000    4.73100000    1.50400000
 C                  3.33500000    5.34600000    1.36200000
 C                  2.25600000    5.90800000    1.30600000
 C                  1.02800000    6.64500000    1.30000000
 N                 -0.11600000    5.95200000    1.29500000
 C                 -1.26600000    6.63600000    1.31100000
 C                 -2.48700000    5.88900000    1.34100000
 C                 -3.55800000    5.31400000    1.42300000
 C                 -4.81800000    4.67100000    1.58600000
 C                 -6.00200000    5.30200000    1.16100000
 C                 -7.23600000    4.70800000    1.38800000
 C                 -7.33200000    3.47300000    2.04900000
 C                 -8.65600000    2.91200000    2.39700000
 C                 -9.60400000    3.71900000    3.00200000
 C                -10.84500000    3.20800000    3.43800000
 C                -11.15200000    1.87500000    3.29100000
 C                -10.23000000    1.01300000    2.65400000
 C                -10.48900000   -0.36600000    2.45400000
 C                 -9.58100000   -1.14500000    1.78900000
 N                 -8.43600000   -0.61700000    1.27800000
 C                 -8.14900000    0.66000000    1.45800000
 C                 -8.98800000    1.53600000    2.17900000
 C                 -6.14700000    2.83700000    2.45400000
 C                 -4.90800000    3.41900000    2.22100000
 C                 -1.32100000    8.04200000    1.33100000
 C                 -0.12700000    8.75100000    1.34000000
 C                  1.07200000    8.05000000    1.32400000
 C                  4.74600000    3.49700000    2.16400000
 C                  6.00400000    2.95300000    2.39000000
 C                  9.43800000    3.97800000    2.85700000
 C                 10.70300000    3.53700000    3.29700000
 C                 11.06000000    2.21100000    3.20800000
 C                 10.16100000    1.28600000    2.62800000
 H                 11.42100000   -0.47600000    2.86600000
 H                  9.79000000   -2.00100000    1.76700000
 H                  7.13700000    1.09900000    1.02700000
 H                  7.91300000    5.34300000    0.89500000
 H                  5.68100000    6.33300000    0.51500000
 H                 -5.94500000    6.26800000    0.65600000
 H                 -8.14500000    5.21000000    1.04900000
 H                 -9.37000000    4.76900000    3.18400000
 H                -11.55500000    3.88200000    3.92200000
 H                -12.09900000    1.47100000    3.65300000
 H                -11.41400000   -0.80900000    2.82500000
 H                 -9.74100000   -2.21200000    1.62300000
 H                 -7.23100000    1.02900000    0.99800000
 H                 -6.19400000    1.89300000    3.00000000
 H                 -3.99900000    2.92100000    2.56100000
 H                 -2.28600000    8.54900000    1.34300000
 H                 -0.13100000    9.84300000    1.35900000
 H                  2.03400000    8.56500000    1.32900000
 H                  3.85600000    2.98300000    2.53300000
 H                  6.08300000    2.02600000    2.96100000
 H                  9.16600000    5.02700000    2.99400000
 H                 11.39400000    4.26000000    3.73700000
 H                 12.02600000    1.86000000    3.57300000
 C                 10.27700000   -1.64200000   -2.68000000
 C                  9.49900000   -1.98400000   -1.60600000
 N                  8.34900000   -1.31300000   -1.32400000
 C                  7.96600000   -0.30100000   -2.07900000
 C                  8.71000000    0.15300000   -3.18600000
 C                  8.28000000    1.25900000   -3.98400000
 C                  7.05600000    2.01700000   -3.63700000
 C                  6.01400000    2.12600000   -4.56800000
 C                  4.84700000    2.81000000   -4.25300000
 C                  4.69500000    3.41800000   -2.99400000
 C                  3.49300000    4.12300000   -2.68800000
 C                  2.45300000    4.72200000   -2.47800000
 C                  1.24200000    5.46800000   -2.28700000
 N                  0.08700000    4.80300000   -2.40900000
 C                 -1.05500000    5.48600000   -2.27300000
 C                 -2.28000000    4.76100000   -2.45100000
 C                 -3.33200000    4.18200000   -2.65300000
 C                 -4.54900000    3.50200000   -2.96100000
 C                 -4.72400000    2.93400000   -4.23500000
 C                 -5.90500000    2.28000000   -4.55700000
 C                 -6.94000000    2.16200000   -3.61900000
 C                 -8.18400000    1.44600000   -3.98700000
 C                 -8.93000000    1.84500000   -5.08000000
 C                -10.12200000    1.17800000   -5.44200000
 C                -10.58100000    0.09900000   -4.72100000
 C                 -9.83900000   -0.36300000   -3.60800000
 C                -10.23000000   -1.48400000   -2.83400000
 C                 -9.45700000   -1.89800000   -1.78200000
 N                 -8.29800000   -1.26000000   -1.46100000
 C                 -7.89800000   -0.21500000   -2.16100000
 C                 -8.63300000    0.30900000   -3.24400000
 C                 -6.76700000    2.73500000   -2.35000000
 C                 -5.59000000    3.39700000   -2.02200000
 C                 -1.09100000    6.86600000   -2.00800000
 C                  0.11300000    7.54800000   -1.89100000
 C                  1.30500000    6.84600000   -2.02500000
 C                  5.74600000    3.32600000   -2.06500000
 C                  6.90700000    2.63500000   -2.38500000
 C                  9.02600000    1.58400000   -5.10100000
 C                 10.20200000    0.87400000   -5.43200000
 C                 10.64600000   -0.17100000   -4.65500000
 C                  9.90300000   -0.55900000   -3.51500000
 H                 11.18500000   -2.20900000   -2.89200000
 H                  9.75800000   -2.80900000   -0.94100000
 H                  7.02500000    0.18500000   -1.81600000
 H                  6.11300000    1.64700000   -5.54500000
 H                  4.03800000    2.87700000   -4.98400000
 H                 -3.92300000    3.01100000   -4.97200000
 H                 -6.02400000    1.83400000   -5.54800000
 H                 -8.60200000    2.70800000   -5.66200000
 H                -10.68800000    1.53500000   -6.30500000
 H                -11.50500000   -0.41100000   -4.99700000
 H                -11.14700000   -2.02400000   -3.07600000
 H                 -9.72800000   -2.75500000   -1.16400000
 H                 -6.95100000    0.24300000   -1.86800000
 H                 -7.57100000    2.68000000   -1.61100000
 H                 -5.47500000    3.84400000   -1.03300000
 H                 -2.04800000    7.37800000   -1.90700000
 H                  0.12400000    8.62200000   -1.69400000
 H                  2.27200000    7.34200000   -1.93500000
 H                  5.64900000    3.80600000   -1.09000000
 H                  7.71900000    2.58900000   -1.65400000
 H                  8.71200000    2.42200000   -5.72700000
 H                 10.76900000    1.17300000   -6.31700000
 H                 11.56100000   -0.71000000   -4.90700000



