%nprocshared=48
%mem=120GB
%chk=m6_l1_opt_FINAL.chk
# SP B97D3/def2svp scrf=(solvent=dmso)

m6_l1

12 1
 Pd                 6.36438800    5.14926000    7.00392500
 Pd                -3.47996500    9.47302100   -3.81255200
 Pd                -6.36821300   -5.16667900   -7.00312300
 Pd                 3.47153000   -9.46514200    3.81068200
 Pd                -7.99079000   -0.01164400    7.23881900
 Pd                 7.98184600    0.01079700   -7.24707400
 C                  5.37564000    7.06669600    4.96706000
 N                  5.69913900    6.93993300    6.27603200
 C                  5.55812500    8.00673900    7.09813300
 C                  5.08825900    9.23226500    6.63563000
 C                  4.73430100    9.39341600    5.27598600
 C                  4.21972000   10.67658800    4.75141600
 C                  4.65007000   11.90652800    5.32329100
 C                  4.19106800   13.14455500    4.85742800
 C                  3.27447400   13.11876600    3.80614800
 O                  2.69655100   14.22018300    3.21525000
 C                  1.85393800   13.74663700    2.23455300
 C                  1.06141000   14.52793100    1.39342100
 C                  0.26117800   13.84572900    0.46898500
 C                  0.25630100   12.42573300    0.37543600
 C                 -0.60854700   11.74905600   -0.61482700
 C                 -0.24667700   10.50996700   -1.19324400
 C                 -1.08653000    9.89414800   -2.11533100
 N                 -2.26652000   10.44583100   -2.48664700
 C                 -2.63859100   11.63356600   -1.95303300
 C                 -1.84179500   12.30363800   -1.02944000
 C                  1.07823800   11.66467200    1.23713400
 C                  1.87776700   12.32813200    2.17612800
 C                  2.81491800   11.91450000    3.21059600
 C                  3.29597600   10.68662400    3.68201600
 C                  4.89485600    8.26200900    4.44259500
 H                  5.51691000    6.18580700    4.33352500
 H                  5.82002300    7.86042500    8.15041300
 H                  4.97337000   10.04880600    7.35305700
 H                  5.38672100   11.89532300    6.13253700
 H                  4.53790300   14.08605700    5.29269700
 H                  1.06864300   15.62013000    1.45026700
 H                 -0.35516800   14.43287300   -0.21875400
 H                  0.70325800   10.02637400   -0.95172400
 H                 -0.81589300    8.94137300   -2.58076700
 H                 -3.60267800   12.04168900   -2.27229500
 H                 -2.20766700   13.24705600   -0.61623700
 H                  1.06964600   10.57107100    1.19978700
 H                  2.93191000    9.75115300    3.24635700
 H                  4.67387500    8.30866800    3.37308000
 C                  6.18948500    2.28349000    7.74577100
 N                  7.02027800    3.35294700    7.72519700
 C                  8.29273100    3.21061100    8.16633100
 C                  8.77283000    1.99297400    8.63916500
 C                  7.93217200    0.85594400    8.66591700
 C                  8.41127800   -0.45730300    9.14810400
 C                  9.41555600   -0.52774600   10.15393600
 C                  9.89801600   -1.74914200   10.63954600
 C                  9.35415900   -2.90578700   10.08057100
 O                  9.69978400   -4.19762600   10.40879000
 C                  8.93311200   -5.02521100    9.61904600
 C                  8.97093200   -6.41970400    9.62206600
 C                  8.11578100   -7.07495400    8.72766800
 C                  7.23820200   -6.36384300    7.86219000
 C                  6.35323800   -7.09902700    6.93328000
 C                  5.09030200   -6.58887600    6.55213400
 C                  4.28424100   -7.29911500    5.66839100
 N                  4.67329000   -8.48493900    5.14256000
 C                  5.87577700   -9.00025900    5.49169300
 C                  6.72684900   -8.34372600    6.37559500
 C                  7.21905200   -4.95111200    7.89051400
 C                  8.07602900   -4.27704300    8.76946800
 C                  8.35355000   -2.88060800    9.07348700
 C                  7.87561100   -1.64888900    8.60922000
 C                  6.60844000    1.03799600    8.20194400
 H                  5.16600700    2.44343900    7.39289300
 H                  8.93529000    4.09549600    8.12341100
 H                  9.81659600    1.93489200    8.95822000
 H                  9.80728700    0.39655800   10.58952500
 H                 10.66012400   -1.79457900   11.42270100
 H                  9.63254600   -6.97378900   10.29395800
 H                  8.10737800   -8.16929900    8.72207700
 H                  4.71193800   -5.64793500    6.95990600
 H                  3.29922800   -6.92514400    5.37312100
 H                  6.15673000   -9.95545500    5.03803000
 H                  7.69517700   -8.79884500    6.59901800
 H                  6.57115300   -4.38531200    7.21397400
 H                  7.12159600   -1.61699100    7.81685600
 H                  5.88482500    0.21881900    8.21544100
 C                  3.55319000    5.19255400    7.93917300
 N                  4.83860200    5.14395400    8.36323600
 C                  5.09590000    5.09022100    9.69170100
 C                  4.07410900    5.08465000   10.63671200
 C                  2.72183500    5.12970000   10.22533800
 C                  1.60817800    5.11759000   11.19803400
 C                  1.77597100    5.69876600   12.48613100
 C                  0.74549300    5.71709900   13.43398100
 C                 -0.46145500    5.12542600   13.06067100
 O                 -1.58970600    5.03370800   13.84481000
 C                 -2.53968400    4.37529800   13.09617800
 C                 -3.83871800    4.07613700   13.50744200
 C                 -4.65222400    3.40461500   12.58658600
 C                 -4.18369100    3.03032700   11.29611900
 C                 -5.07675800    2.31578400   10.35883400
 C                 -4.57231100    1.38792700    9.41781400
 C                 -5.43555100    0.73393300    8.54497100
 N                 -6.77058100    0.96124400    8.55792800
 C                 -7.28327200    1.84351600    9.44806600
 C                 -6.47520700    2.52553600   10.35297700
 C                 -2.86051000    3.34531600   10.91284300
 C                 -2.03511400    4.02725200   11.81544000
 C                 -0.66851000    4.52823200   11.78924500
 C                  0.37090600    4.52970000   10.85092600
 C                  2.48634900    5.18496500    8.83158700
 H                  3.38830900    5.24725000    6.85855400
 H                  6.14691700    5.04098400    9.99274500
 H                  4.34465300    5.01646900   11.69357900
 H                  2.72664500    6.17690500   12.74170500
 H                  0.87785800    6.17888900   14.41654900
 H                 -4.20168200    4.34736300   14.50291100
 H                 -5.66907100    3.13586600   12.88906100
 H                 -3.50726700    1.14564700    9.37466100
 H                 -5.06357500    0.00349600    7.81994300
 H                 -8.36492200    2.00586800    9.41791900
 H                 -6.94482800    3.24244600   11.03134400
 H                 -2.49046600    3.09190900    9.91473000
 H                  0.23018600    4.05329400    9.87591200
 H                  1.47204600    5.25082800    8.42954700
 C                  7.99359200    4.12044000    4.75076800
 N                  7.87519900    5.14614500    5.62751800
 C                  8.75834700    6.17116200    5.56955000
 C                  9.78538700    6.20228100    4.63082600
 C                  9.93011800    5.15038700    3.69668100
 C                 10.99943900    5.15498500    2.67542800
 C                 12.24726600    5.78246300    2.94790700
 C                 13.28609300    5.81157800    2.00956000
 C                 13.03805600    5.20204900    0.77946900
 O                 13.91871800    5.13278100   -0.27683100
 C                 13.27200200    4.45755100   -1.28785600
 C                 13.80159100    4.17168000   -2.54639900
 C                 12.97017900    3.48282300   -3.43791400
 C                 11.65246500    3.07853900   -3.08422100
 C                 10.81071300    2.35185600   -4.05881000
 C                  9.84553500    1.40486600   -3.64362300
 C                  9.06231900    0.74295600   -4.58354400
 N                  9.18814100    0.97896200   -5.91113000
 C                 10.10604800    1.87782500   -6.33910400
 C                 10.92482900    2.56957400   -5.45155400
 C                 11.14958400    3.37755600   -1.79790600
 C                 11.96146500    4.07668500   -0.89612600
 C                 11.80713500    4.56768800    0.46567400
 C                 10.78436300    4.53925200    1.42172500
 C                  8.99467000    4.09307300    3.78540200
 H                  7.26911300    3.30468700    4.83849200
 H                  8.62261500    6.98445600    6.28894000
 H                 10.45138300    7.06885700    4.61838500
 H                 12.42027700    6.23340200    3.92992600
 H                 14.24695900    6.28441200    2.23187600
 H                 14.81837300    4.46656500   -2.82108600
 H                 13.36576700    3.22462100   -4.42510800
 H                  9.71385400    1.15463000   -2.58769300
 H                  8.31943500   -0.00103900   -4.28063000
 H                 10.16918200    2.04716000   -7.41832900
 H                 11.62946500    3.30036700   -5.85679700
 H                 10.12954000    3.09934700   -1.51570500
 H                  9.82290100    4.07478600    1.18229600
 H                  9.05315600    3.22639200    3.12190400
 C                 -5.22250400    7.28092400   -4.78790400
 N                 -4.68558400    8.47696400   -5.12813800
 C                 -4.94937500    8.99736100   -6.35002500
 C                 -5.75973900    8.33734200   -7.26908700
 C                 -6.32977900    7.08431100   -6.94576200
 C                 -7.18881600    6.34874600   -7.89833200
 C                 -8.00637500    7.06062600   -8.82007700
 C                 -8.84156700    6.40565200   -9.73340000
 C                 -8.82806400    5.01092800   -9.70776600
 O                 -9.56730100    4.18371000  -10.52359000
 C                 -9.24745500    2.89149200  -10.17118800
 C                 -9.77592200    1.73513200  -10.74533200
 C                 -9.31961800    0.51339100  -10.23563600
 C                 -8.35594700    0.44285500   -9.19102300
 C                 -7.89481600   -0.87058800   -8.69224600
 C                 -6.58432400   -1.05352500   -8.19254100
 C                 -6.17854700   -2.29992000   -7.72731300
 N                 -7.01101000   -3.36832700   -7.72940100
 C                 -8.27182000   -3.22438900   -8.20175900
 C                 -8.73796300   -2.00601500   -8.68721200
 C                 -7.83827600    1.63387000   -8.63385400
 C                 -8.29110400    2.86586600   -9.12197600
 C                 -8.02117200    4.26216500   -8.81082900
 C                 -7.20174500    4.93569200   -7.89637900
 C                 -6.03568800    6.56738500   -5.66243100
 H                 -4.99657400    6.90247100   -3.78617300
 H                 -4.48773600    9.96018800   -6.58940500
 H                 -5.91670400    8.79700900   -8.24825300
 H                 -8.01272100    8.15485600   -8.80029300
 H                 -9.47834100    6.96013700  -10.42857100
 H                -10.50551400    1.78090300  -11.55885000
 H                 -9.69763400   -0.41126800  -10.68260200
 H                 -5.85998100   -0.23486900   -8.18666900
 H                 -5.16398700   -2.46139300   -7.34995900
 H                 -8.91567300   -4.10897400   -8.17475400
 H                 -9.77303500   -1.94610500   -9.03334300
 H                 -7.11670600    1.60105700   -7.81178500
 H                 -6.55921300    4.36981400   -7.21474300
 H                 -6.46034100    5.61940300   -5.32205700
 C                 -5.37519000   -7.07181200   -4.96205700
 N                 -5.71432800   -6.95796800   -6.26835500
 C                 -5.60091300   -8.03723500   -7.07836700
 C                 -5.14387400   -9.26385000   -6.60524100
 C                 -4.77427200   -9.41195400   -5.24825200
 C                 -4.27125300  -10.69463900   -4.71140000
 C                 -4.73065400  -11.92732600   -5.25383300
 C                 -4.28518600  -13.16422000   -4.77157000
 C                 -3.35320900  -13.13465400   -3.73388700
 O                 -2.78691100  -14.23438100   -3.12843500
 C                 -1.92099100  -13.75656600   -2.17011700
 C                 -1.13945800  -14.53466600   -1.31572100
 C                 -0.32615300  -13.84831500   -0.40557000
 C                 -0.28255700  -12.42692200   -0.35315500
 C                  0.59935100  -11.74492700    0.61834500
 C                  1.17967400  -10.48669200    0.33425600
 C                  2.00233800   -9.86644200    1.26862600
 N                  2.27193400  -10.43237000    2.46909600
 C                  1.73143000  -11.63691200    2.76991900
 C                  0.90403200  -12.31220300    1.87736000
 C                 -1.08486700  -11.66879500   -1.23549200
 C                 -1.91354600  -12.33693800   -2.14529600
 C                 -2.86304700  -11.92739300   -3.16979600
 C                 -3.33033600  -10.70056200   -3.65715700
 C                 -4.90606400   -8.26732500   -4.42798400
 H                 -5.49532400   -6.18051700   -4.33873000
 H                 -5.87410700   -7.90050000   -8.12931100
 H                 -5.05030100  -10.09177600   -7.31272100
 H                 -5.47924700  -11.91835500   -6.05211700
 H                 -4.65413200  -14.10761200   -5.18397600
 H                 -1.15592100  -15.62737000   -1.35970100
 H                  0.31628700  -14.43164100    0.26127800
 H                  1.01906300   -9.99191600   -0.62707000
 H                  2.46826700   -8.89843500    1.06025200
 H                  1.96472600  -12.05354400    3.75461100
 H                  0.47760700  -13.26983000    2.18659700
 H                 -1.08703200  -10.57535000   -1.19241500
 H                 -2.94358400   -9.76339700   -3.24533700
 H                 -4.67133600   -8.30366300   -3.36100600
 C                 -8.00574500   -4.12798200   -4.75875100
 N                 -7.88298000   -5.15698600   -5.63069700
 C                 -8.76180200   -6.18541100   -5.56802500
 C                 -9.78798800   -6.21697200   -4.62849400
 C                 -9.93656100   -5.16193600   -3.69860100
 C                -11.00519000   -5.16831400   -2.67640200
 C                -12.25105600   -5.80034300   -2.94728800
 C                -13.28881000   -5.83273300   -2.00786000
 C                -13.04153300   -5.22212200   -0.77819100
 O                -13.92114700   -5.15641200    0.27927400
 C                -13.27562200   -4.47927700    1.28968600
 C                -13.80453300   -4.19605600    2.54911800
 C                -12.97451000   -3.50463600    3.43991500
 C                -11.65876000   -3.09514300    3.08478900
 C                -10.81843400   -2.36544300    4.05837400
 C                 -9.85560700   -1.41696500    3.64136600
 C                 -9.07266500   -0.75262900    4.57962600
 N                 -9.19641000   -0.98762500    5.90775100
 C                -10.11271900   -1.88726000    6.33785500
 C                -10.93090600   -2.58148600    5.45155700
 C                -11.15674100   -3.39145500    1.79742000
 C                -11.96711600   -4.09314100    0.89629600
 C                -11.81261200   -4.58316700   -0.46590500
 C                -10.79105400   -4.55103400   -1.42331300
 C                 -9.00623200   -4.10069000   -3.79263200
 H                 -7.28542500   -3.30953800   -4.85188600
 H                 -8.62293000   -7.00107000   -6.28402600
 H                -10.45074300   -7.08599400   -4.61218800
 H                -12.42323800   -6.25263700   -3.92882900
 H                -14.24819000   -6.30917000   -2.22891100
 H                -14.81980900   -4.49495600    2.82503200
 H                -13.36997400   -3.24855000    4.42767900
 H                 -9.72549700   -1.16748000    2.58514500
 H                 -8.33202300   -0.00728500    4.27440500
 H                -10.17501200   -2.05393500    7.41751400
 H                -11.63387300   -3.31311500    5.85807500
 H                -10.13816900   -3.10946200    1.51377000
 H                 -9.83101300   -4.08284100   -1.18547100
 H                 -9.06890000   -3.23117600   -3.13323800
 C                 -3.55660200   -5.23351300   -7.94150900
 N                 -4.84215700   -5.16912100   -8.36261600
 C                 -5.10107200   -5.09414900   -9.68967800
 C                 -4.08072500   -5.08149700  -10.63609800
 C                 -2.72814800   -5.14082900  -10.22747100
 C                 -1.61699200   -5.11953500  -11.20305600
 C                 -1.78944700   -5.68921000  -12.49560700
 C                 -0.76315500   -5.69693700  -13.44805900
 C                  0.44386500   -5.10544500  -13.07490600
 O                  1.56781600   -5.00347000  -13.86392300
 C                  2.51926200   -4.34806500  -13.11472400
 C                  3.81474900   -4.04030400  -13.53078500
 C                  4.63060400   -3.37284600  -12.60913400
 C                  4.16757300   -3.01074700  -11.31319100
 C                  5.06274300   -2.29924300  -10.37554600
 C                  4.55987300   -1.38005000   -9.42539900
 C                  5.42531700   -0.72968800   -8.55204300
 N                  6.76118800   -0.95133500   -8.57408800
 C                  7.27279900   -1.82422100   -9.47409400
 C                  6.46218200   -2.50329200  -10.37899800
 C                  2.84781000   -3.33422100  -10.92515900
 C                  2.02012400   -4.01247200  -11.82850300
 C                  0.65550200   -4.51900100  -11.79919500
 C                 -0.37954200   -4.53206700  -10.85587200
 C                 -2.49077600   -5.21941200   -8.83526000
 H                 -3.39081100   -5.30663500   -6.86226600
 H                 -6.15234200   -5.03286300   -9.98757900
 H                 -4.35195500   -4.99587000  -11.69151100
 H                 -2.74045000   -6.16678300  -12.75105400
 H                 -0.89876200   -6.15009600  -14.43419400
 H                  4.17306900   -4.30179900  -14.53053000
 H                  5.64444000   -3.09704200  -12.91527700
 H                  3.49430600   -1.14162300   -9.37547400
 H                  5.05446800   -0.00646000   -7.81944300
 H                  8.35537600   -1.98255800   -9.45167300
 H                  6.93047600   -3.21435700  -11.06437200
 H                  2.48230400   -3.08995500   -9.92310200
 H                 -0.23638100   -4.06355300   -9.87732100
 H                 -1.47634500   -5.29855400   -8.43593900
 C                 -4.79706100    8.89661900   -1.21842800
 N                 -4.98657100    9.46764500   -2.43169800
 C                 -6.18935300   10.01665300   -2.72407100
 C                 -7.24040000   10.00892300   -1.81190700
 C                 -7.07649500    9.41231100   -0.53999800
 C                 -8.17440700    9.37102100    0.44972800
 C                 -9.14750800   10.40881500    0.48333100
 C                -10.20388600   10.40891200    1.40237100
 C                -10.26801500    9.33049700    2.28498100
 O                -11.23013400    9.13713900    3.25090100
 C                -10.92234200    7.95415200    3.88488200
 C                -11.64608200    7.37572900    4.92779800
 C                -11.16896500    6.15716100    5.42558500
 C                 -9.99726700    5.53594800    4.90940400
 C                 -9.53139500    4.24808700    5.46721600
 C                 -8.15980600    3.90374600    5.49392200
 C                 -7.75307300    2.68070200    6.01681600
 N                 -8.64048200    1.78451500    6.51079800
 C                 -9.96051700    2.08723600    6.50175500
 C                -10.43234500    3.29512400    5.99665800
 C                 -9.28300200    6.15334800    3.85778300
 C                 -9.75131100    7.36640500    3.33777200
 C                 -9.32028600    8.27319800    2.28350800
 C                 -8.26421300    8.29730500    1.36414600
 C                 -5.80773800    8.85119800   -0.26367600
 H                 -3.80672400    8.47710700   -1.01679500
 H                 -6.30369000   10.45876600   -3.71855700
 H                 -8.19499700   10.44557500   -2.11637800
 H                 -9.05861100   11.25301900   -0.20732000
 H                -10.94000900   11.21732100    1.43058100
 H                -12.53966400    7.85348700    5.33947900
 H                -11.70377200    5.69028000    6.25838100
 H                 -7.39374300    4.59482400    5.13305300
 H                 -6.69491000    2.40417000    6.05347400
 H                -10.64645200    1.33292000    6.89981000
 H                -11.51122000    3.47078400    5.99401400
 H                 -8.39499500    5.67948700    3.42845300
 H                 -7.54178300    7.47585600    1.33738600
 H                 -5.58684600    8.39720800    0.70581400
 C                 -1.51232400    8.28766600   -5.68637300
 N                 -1.96916000    9.46125600   -5.18827500
 C                 -1.40351800   10.62030900   -5.60066700
 C                 -0.36231600   10.64028500   -6.52410400
 C                  0.14180000    9.43109700   -7.05676200
 C                  1.25475600    9.41024400   -8.03016900
 C                  1.42579700   10.48659500   -8.94514900
 C                  2.46058100   10.50406100   -9.88835000
 C                  3.33222200    9.41490900   -9.88409700
 O                  4.41146300    9.24407400  -10.72218800
 C                  4.99680200    8.04699700  -10.37478500
 C                  6.12042200    7.48266200  -10.97905700
 C                  6.55178700    6.24818600  -10.47850800
 C                  5.89163500    5.59752200   -9.39874700
 C                  6.38683300    4.29659600   -8.89981300
 C                  6.24333900    3.91968300   -7.54391100
 C                  6.71598900    2.68767800   -7.10389600
 N                  7.31801600    1.81297000   -7.94462700
 C                  7.46976600    2.14523500   -9.24851600
 C                  7.02440900    3.36436100   -9.75090800
 C                  4.75892300    6.19954100   -8.80585100
 C                  4.30435900    7.42810200   -9.30076400
 C                  3.20255100    8.32503600   -8.98331900
 C                  2.15383600    8.32024700   -8.05536000
 C                 -0.47139600    8.23809500   -6.60762800
 H                 -2.00562700    7.37466200   -5.33859900
 H                 -1.79441700   11.54532300   -5.16598000
 H                  0.06902400   11.60611600   -6.79950900
 H                  0.71204800   11.31613800   -8.94010200
 H                  2.57604500   11.32793800  -10.59835900
 H                  6.64230600    7.98314000  -11.79964500
 H                  7.44433200    5.79169000  -10.91737000
 H                  5.78888500    4.59281200   -6.81231900
 H                  6.62478100    2.38680100   -6.05529100
 H                  7.95147300    1.40660300   -9.89667800
 H                  7.15494400    3.56537400  -10.81732600
 H                  4.22022400    5.70276800   -7.99319700
 H                  2.05714700    7.49689000   -7.34109100
 H                 -0.16367300    7.26223600   -6.99194400
 C                  0.76386000   -8.89782300    4.87297400
 N                  1.95273600   -9.47057400    5.17803100
 C                  2.12584600  -10.02343700    6.40205100
 C                  1.11586100  -10.01535700    7.35956100
 C                 -0.13381000   -9.41776600    7.07396900
 C                 -1.22471600   -9.37772200    8.07141800
 C                 -1.35048000  -10.41661400    9.03576800
 C                 -2.36612300  -10.41839000    9.99950000
 C                 -3.25198000   -9.34100500    9.97962800
 O                 -4.30599900   -9.14997700   10.84483300
 C                 -4.90952000   -7.96784000   10.47839700
 C                 -6.01839300   -7.39213200   11.09885700
 C                 -6.47086500   -6.17451600   10.57648100
 C                 -5.84580000   -5.55136500    9.46015300
 C                 -6.36023300   -4.26518700    8.94282500
 C                 -6.25159500   -3.91793200    7.57595300
 C                 -6.74004600   -2.69747600    7.12114200
 N                 -7.32563000   -1.80632100    7.95629200
 C                 -7.44584300   -2.11137100    9.27028300
 C                 -6.98242400   -3.31715400    9.78803700
 C                 -4.72890900   -6.16590300    8.85013200
 C                 -4.25363800   -7.37819000    9.36559800
 C                 -3.16099700   -8.28272500    9.03733100
 C                 -2.14420900   -8.30446300    8.07454300
 C                 -0.28527500   -8.85477200    5.78527300
 H                  0.65993500   -8.47312500    3.86969000
 H                  3.10301100  -10.46930400    6.61242900
 H                  1.32559900  -10.45371300    8.33857100
 H                 -0.65381100  -11.26022500    9.01236400
 H                 -2.46380200  -11.22742300   10.72896300
 H                 -6.51321700   -7.87142400   11.94834900
 H                 -7.35238000   -5.70985400   11.02876400
 H                 -5.81128700   -4.60488200    6.84863700
 H                 -6.67424500   -2.41828200    6.06505600
 H                 -7.91631200   -1.36159000    9.91411400
 H                 -7.08655200   -3.49551900   10.86130500
 H                 -4.21752200   -5.69038500    8.00767700
 H                 -2.04898400   -7.48186500    7.35919000
 H                 -1.22864800   -8.40044600    5.47151000
 C                  5.50604500   -8.25988200    2.02128600
 N                  4.98270500   -9.43842600    2.43541700
 C                  5.47107800  -10.59478200    1.92769800
 C                  6.50013000  -10.60781800    0.99063700
 C                  7.06442000   -9.39379300    0.53499800
 C                  8.15327700   -9.36467200   -0.46502000
 C                  9.09724600  -10.42765600   -0.52664400
 C                 10.14941600  -10.43571200   -1.45061600
 C                 10.22627600   -9.35048700   -2.32385600
 O                 11.17687600   -9.17138100   -3.30390900
 C                 10.87981600   -7.98178600   -3.93085500
 C                 11.59799800   -7.41259100   -4.98271800
 C                 11.13121000   -6.18723300   -5.47391400
 C                  9.97506300   -5.55058500   -4.94203700
 C                  9.51492500   -4.25944400   -5.49674500
 C                  8.14511200   -3.90770900   -5.51415400
 C                  7.74194400   -2.68273700   -6.03512800
 N                  8.63148500   -1.79110200   -6.53366700
 C                  9.94983300   -2.10081900   -6.53303800
 C                 10.41806300   -3.31202700   -6.03205200
 C                  9.26800700   -6.15683400   -3.87924100
 C                  9.72649600   -7.37630600   -3.36577500
 C                  9.30073100   -8.27392800   -2.30174500
 C                  8.26178700   -8.27881900   -1.36286700
 C                  6.53238900   -8.20352500    1.08397600
 H                  5.09175200   -7.34885300    2.46454800
 H                  5.01283100  -11.52404800    2.28024000
 H                  6.83570600  -11.57224400    0.60079000
 H                  9.02512100  -11.25376900    0.18747300
 H                 10.87969900  -11.24930600   -1.48157800
 H                 12.47903300   -7.90268100   -5.40677400
 H                 11.66062400   -5.72743900   -6.31413100
 H                  7.37856200   -4.59512700   -5.14729800
 H                  6.68518600   -2.40014500   -6.06640500
 H                 10.63714900   -1.34976200   -6.93467500
 H                 11.49577100   -3.49432200   -6.03588400
 H                  8.39322200   -5.66986200   -3.43743900
 H                  7.52962200   -7.46563800   -1.35069900
 H                  6.93075000   -7.22421700    0.80655000

