  56
        -87.08679253
 H         -7.3537676153       -0.9106370106       -1.3748857286
 C         -7.0298106871       -0.2851276963       -0.5356472901
 N         -7.8227159003        0.3601373106        0.2141741790
 C         -9.1947006634        0.2678770155        0.1208255342
 C         -9.8564839577       -0.9510389074       -0.0481194916
 C        -11.2369344403       -0.9955493543       -0.0533749004
 C        -11.9754463490        0.1672055265        0.0926226642
 C        -11.3246856744        1.3798358152        0.2628325859
 C         -9.9463170206        1.4327528514        0.2930643521
 H         -9.4278543730        2.3703460285        0.4235266532
 H        -11.8984123310        2.2874675316        0.3814510964
 H        -13.0544678399        0.1281777716        0.0815817669
 H        -11.7405935357       -1.9437053809       -0.1753571142
 H         -9.2769163807       -1.8584812944       -0.1416764132
 C         -5.5910528929       -0.2083982006       -0.3477256906
 N         -4.8485592818       -0.9050612678       -1.2094267025
 C         -3.5409166942       -0.8663914987       -1.0916569709
 C         -2.8631788006       -0.1304807064       -0.1133992185
 C         -3.6470521832        0.5888273719        0.7916897121
 C         -5.0208850261        0.5505056165        0.6785724825
 H         -5.6676833446        1.0923196536        1.3493783857
 H         -3.1756793109        1.1866825617        1.5589350618
 C         -1.4005115941       -0.1246185815       -0.0452845485
 C         -0.6337027359       -0.0885912747       -1.2094167898
 C          0.7439863845       -0.0791285659       -1.1454673977
 C          1.4014344794       -0.1212910621        0.0836303169
 C          0.6347414619       -0.1654886556        1.2474891251
 C         -0.7431764131       -0.1591387811        1.1840537027
 H         -1.3197699342       -0.2038005359        2.0964295049
 H          1.1262546357       -0.1829754431        2.2090645787
 C          2.8643038213       -0.1249129045        0.1478554964
 C          3.5493629980       -0.9209865491        1.0723061891
 N          4.8580044046       -0.9667082363        1.1772103966
 C          5.5938166104       -0.2162449451        0.3559692558
 C          5.0157251566        0.6098422029       -0.6124284797
 C          3.6412078841        0.6545103570       -0.7124743888
 H          3.1639204807        1.3015625231       -1.4348252866
 H          5.6574575921        1.1952849777       -1.2506347301
 C          7.0344732428       -0.3089762840        0.5211152124
 N          7.8197021875        0.3781421155       -0.1990387983
 C          9.1924033707        0.2749284828       -0.1338019670
 C          9.9468737536        1.4450757921       -0.2484519658
 C         11.3252545551        1.3849050819       -0.2457354536
 C         11.9726685356        0.1615646861       -0.1606605447
 C         11.2308958625       -1.0049174499       -0.0722053859
 C          9.8508094648       -0.9546564416       -0.0504954744
 H          9.2683398608       -1.8637691557       -0.0020965546
 H         11.7318141162       -1.9607229097       -0.0167961271
 H         13.0515027954        0.1175521982       -0.1711668483
 H         11.9014535969        2.2957110737       -0.3195690274
 H          9.4309447908        2.3908770481       -0.3131167779
 H          7.3670057890       -0.9865400145        1.3153317779
 H          3.0063588179       -1.5688271298        1.7488779921
 H          1.3206195651       -0.0613044541       -2.0587162257
 H         -1.1252584008       -0.0456961886       -2.1701535626
 H         -2.9924485932       -1.4694619654       -1.8042431498
