%nprocshared=48
%mem=120GB
%chk=m2_lb_xray_opt_FINAL.chk
# SP B3LYP/def2svp empiricaldispersion=GD3BJ scrf=(solvent=dmso)

m2_lb

4 1
 C                 -8.05531900    1.84480100   -2.27673100
 C                 -7.85686200    2.49183900   -3.47168700
 C                 -6.79951500    2.09841500   -4.33525500
 C                 -6.49168800    2.77128300   -5.54431400
 C                 -5.40827900    2.36181800   -6.29537200
 C                 -4.61985300    1.25176200   -5.90288900
 C                 -4.90962000    0.53370700   -4.75568600
 C                 -5.99431100    0.98398800   -3.93313600
 C                 -6.26630300    0.39827600   -2.67954600
 C                 -4.13044500   -0.67351100   -4.37995600
 C                 -2.75083400   -0.58798100   -4.13657500
 C                 -2.02254900   -1.71432600   -3.76439800
 C                 -2.66277500   -2.96257000   -3.62459500
 C                 -4.04305100   -3.05591900   -3.89752600
 C                 -4.76513700   -1.92467300   -4.26399800
 C                 -1.94315700   -4.09346800   -3.13633600
 C                 -1.34448300   -5.01638700   -2.61318400
 C                 -0.64394700   -5.96106700   -1.79174300
 C                 -0.66547900   -7.34831100   -2.02881500
 C                  0.01109200   -8.18104200   -1.13666300
 C                  0.68430200   -7.62338000   -0.04910600
 C                  0.65609500   -6.22470900    0.10555200
 C                  1.35485300   -5.54020900    1.15473300
 C                  1.95342700   -4.79649600    1.91133700
 C                  2.67233500   -3.84266200    2.69131500
 C                  4.05091400   -4.01083000    2.93568600
 C                  4.77342800   -3.02205900    3.59585500
 C                  4.14026300   -1.84634400    4.04138500
 C                  2.76189700   -1.69448700    3.82499200
 C                  2.03342400   -2.67659800    3.15991900
 C                  4.92053700   -0.78550500    4.72822000
 C                  4.63552100   -0.40579100    6.02828600
 C                  5.42507800    0.55799800    6.70342800
 C                  6.50483900    1.15761800    6.08688600
 C                  6.80787900    0.83750100    4.73966400
 C                  7.86175100    1.45069000    4.01059300
 C                  8.05567400    1.15088600    2.68457900
 C                  6.26779200   -0.35169700    2.68727300
 C                  6.00136200   -0.12755900    4.05393700
 C                 -8.07453800   -2.26622900   -1.83348600
 C                 -7.88495300   -3.46252000   -2.48070700
 C                 -6.82856600   -4.33002900   -2.09330500
 C                 -6.52967600   -5.54057800   -2.76745400
 C                 -5.44699100   -6.29592300   -2.36398500
 C                 -4.65074200   -5.90637800   -1.25846100
 C                 -4.93191500   -4.75803000   -0.53864300
 C                 -6.01545500   -3.93082400   -0.98354600
 C                 -6.27822100   -2.67516900   -0.39781000
 C                 -4.14499200   -4.38570700    0.66456900
 C                 -2.76350300   -4.15473900    0.57389400
 C                 -2.02830800   -3.78366800    1.69618200
 C                 -2.66337600   -3.63292200    2.94573900
 C                 -4.04533300   -3.89530000    3.04486600
 C                 -4.77426000   -4.26040000    1.91764300
 C                 -1.93787700   -3.14399300    4.07269900
 C                 -1.33620600   -2.62057300    4.99353200
 C                 -0.63237600   -1.80136800    5.93784300
 C                 -0.64422300   -2.04570400    7.32396400
 C                  0.03551700   -1.15617100    8.15692000
 C                  0.70245600   -0.06416000    7.60048100
 C                  0.66456300    0.09784400    6.20287300
 C                  1.35787600    1.15128800    5.51940800
 C                  1.95365000    1.91138500    4.77698200
 C                  2.67239600    2.69416500    3.82534600
 C                  2.03446500    3.16522000    2.65974200
 C                  2.76404500    3.83122500    1.67899600
 C                  4.14245300    4.04633700    1.83197700
 C                  4.77433800    3.59936400    3.00791800
 C                  4.05092100    2.93812700    3.99520500
 C                  4.92543100    4.73202500    0.77245900
 C                  4.64102400    6.03091600    0.38842900
 C                  5.43513400    6.70447600   -0.57275200
 C                  6.51956100    6.08806900   -1.16432000
 C                  6.82230600    4.74176400   -0.83980300
 C                  7.88172700    4.01257500   -1.44369500
 C                  8.07350700    2.68660200   -1.14193600
 C                  6.27378100    2.69050200    0.34656500
 C                  6.00991500    4.05727700    0.12101800
 C                 -8.07801500   -1.82470800    2.27105300
 C                 -7.88375500   -2.47607300    3.46440100
 C                 -6.82321800   -2.09263200    4.32873500
 C                 -6.52010200   -2.77102400    5.53585400
 C                 -5.43436000   -2.37063900    6.28844900
 C                 -4.63902400   -1.26419600    5.89963700
 C                 -4.92429700   -0.54027800    4.75483200
 C                 -6.01106700   -0.98202300    3.93017500
 C                 -6.27796600   -0.39273600    2.67704800
 C                 -4.13866700    0.66403100    4.38373500
 C                 -4.76883500    1.91693900    4.26117400
 C                 -4.04103700    3.04528400    3.89739900
 C                 -2.65929300    2.94736900    3.63343300
 C                 -2.02327000    1.69794200    3.78126700
 C                 -2.75736700    0.57457800    4.15117300
 C                 -1.93522700    4.07550200    3.14520200
 C                 -1.33564000    4.99735300    2.62120500
 C                 -0.63647400    5.94287000    1.79949900
 C                 -0.65319200    7.32926400    2.04197400
 C                  0.02172500    8.16361800    1.15009900
 C                  0.68877700    7.60821300    0.05763600
 C                  0.65602000    6.21022100   -0.10226100
 C                  1.35040700    5.52809700   -1.15591500
 C                  1.94803500    4.78645500   -1.91531100
 C                  2.66841100    3.83483000   -2.69663400
 C                  2.03006300    2.67194200   -3.17374300
 C                  2.76088000    1.69098400   -3.83795000
 C                  4.14093100    1.84076000   -4.04513200
 C                  4.77329400    3.01416700   -3.59230200
 C                  4.04865000    4.00171100   -2.93277200
 C                  4.92337100    0.78059000   -4.73018100
 C                  4.63770900    0.39713500   -6.02906800
 C                  5.42875700   -0.56619700   -6.70303500
 C                  6.51050900   -1.16204300   -6.08627300
 C                  6.81417800   -0.83841300   -4.74003100
 C                  7.87035800   -1.44786700   -4.01102100
 C                  8.06502400   -1.14587500   -2.68558100
 C                  6.27315400    0.35216800   -2.68931900
 C                  6.00639900    0.12638200   -4.05562700
 C                 -8.07946400    2.27594900    1.83157300
 C                 -7.88639300    3.46751800    2.48651300
 C                 -6.82670400    4.33391700    2.10552100
 C                 -6.52380600    5.53912000    2.78746400
 C                 -5.43939300    6.29418600    2.38805300
 C                 -4.64513200    5.91015900    1.27908100
 C                 -4.92984900    4.76706100    0.55251500
 C                 -6.01496300    3.93973700    0.99314900
 C                 -6.28004500    2.68788400    0.40050200
 C                 -4.14573600    4.39860000   -0.65380200
 C                 -4.77630000    4.28890600   -1.90770800
 C                 -4.05139000    3.92296700   -3.03729600
 C                 -2.67260000    3.64350100   -2.93937500
 C                 -2.03581000    3.78007300   -1.68904100
 C                 -2.76686700    4.15242600   -0.56447500
 C                 -1.95245700    3.15084300   -4.06802200
 C                 -1.35552400    2.62388400   -4.98990500
 C                 -0.66058200    1.80062200   -5.93694300
 C                 -0.69361300    2.03375800   -7.32467000
 C                 -0.02376000    1.13955800   -8.16051200
 C                  0.65363400    0.05324900   -7.60542000
 C                  0.63622200   -0.09811900   -6.20621000
 C                  1.33690900   -1.14813500   -5.52463500
 C                  1.93623300   -1.90658000   -4.78337400
 C                  2.65815400   -2.68753400   -3.83245200
 C                  2.02101000   -3.16689000   -2.66979100
 C                  2.75276200   -3.83196300   -1.69006900
 C                  4.13300600   -4.03738800   -1.84070800
 C                  4.76430100   -3.58166400   -3.01359700
 C                  4.03857700   -2.92179900   -4.00011400
 C                  4.91692800   -4.72492900   -0.78322600
 C                  4.63324900   -6.02550700   -0.40421400
 C                  5.42692500   -6.70232000    0.55485300
 C                  6.50985300   -6.08734400    1.15035000
 C                  6.81201800   -4.73969600    0.83101800
 C                  7.87058100   -4.01282200    1.43904200
 C                  8.06409700   -2.68640900    1.14049100
 C                  6.26650000   -2.68495200   -0.35066800
 C                  6.00094000   -4.05206700   -0.12877500
 H                 -8.84853300    2.13244300   -1.58760100
 H                 -8.50937700    3.32141600   -3.74675400
 H                 -7.10519300    3.61749100   -5.85794200
 H                 -5.15679400    2.89134700   -7.21634200
 H                 -3.78634300    0.93698700   -6.53332800
 H                 -5.64431600   -0.41948700   -2.31827500
 H                 -2.24290600    0.37120800   -4.21357400
 H                 -0.95241300   -1.62169600   -3.57477500
 H                 -4.54183300   -4.02040100   -3.81020400
 H                 -5.83353900   -2.01215700   -4.47328500
 H                 -1.19934100   -7.75135900   -2.88995300
 H                  0.01408400   -9.26192500   -1.28855000
 H                  1.22090700   -8.24563000    0.66772300
 H                  4.54829000   -4.91773400    2.59390500
 H                  5.84090600   -3.16570300    3.77733900
 H                  2.25565500   -0.78977800    4.15540200
 H                  0.96441200   -2.53311500    2.99744000
 H                  3.80498200   -0.88100700    6.55340500
 H                  5.17740700    0.81770500    7.73447300
 H                  7.11866400    1.88835400    6.61595100
 H                  8.51617700    2.17517200    4.49704400
 H                  8.84636000    1.61497700    2.09628900
 H                  5.64422900   -1.04194900    2.12077000
 H                 -8.86718700   -1.57470900   -2.11691700
 H                 -8.54386400   -3.73567500   -3.30587100
 H                 -7.14944300   -5.85237700   -3.60971100
 H                 -5.20208600   -7.21807100   -2.89460500
 H                 -3.81791900   -6.54002900   -0.94843700
 H                 -5.64951200   -2.31543000    0.41555000
 H                 -2.25961100   -4.23982500   -0.38672600
 H                 -0.95695600   -3.60324300    1.59889700
 H                 -4.54004000   -3.80062900    4.01068700
 H                 -5.84383600   -4.46136100    2.01018300
 H                 -1.17307200   -2.91041800    7.72594700
 H                  0.04603700   -1.31355500    9.23697000
 H                  1.24167400    0.65052000    8.22299000
 H                  0.96541900    3.00376700    2.51534900
 H                  2.25870600    4.16319400    0.77435700
 H                  5.84178400    3.78045200    3.15235700
 H                  4.54731800    2.59444600    4.90191900
 H                  3.80740500    6.55620400    0.85802500
 H                  5.18770500    7.73456700   -0.83645500
 H                  7.13725700    6.61669500   -1.89214900
 H                  8.54202700    4.49873600   -2.16296300
 H                  8.86913900    2.09862600   -1.59845200
 H                  5.64445800    2.12417000    1.03171900
 H                 -8.87421300   -2.10412900    1.58190300
 H                 -8.54200800   -3.30153300    3.73800700
 H                 -7.13905200   -3.61422100    5.84676400
 H                 -5.18629600   -2.90440000    7.20795200
 H                 -3.80376800   -0.95654100    6.53125200
 H                 -5.64955900    0.42068800    2.31699200
 H                 -5.83830700    2.00847600    4.46310000
 H                 -4.53645100    4.01096600    3.80494200
 H                 -0.95209300    1.60161500    3.59935700
 H                 -2.25273400   -0.38586400    4.23385600
 H                 -1.18197900    7.73036900    2.90714100
 H                  0.02834900    9.24389400    1.30610600
 H                  1.22446300    8.23162500   -0.65893100
 H                  0.95981400    2.52963400   -3.01835300
 H                  2.25506200    0.78835800   -4.17459900
 H                  5.84191800    3.15687000   -3.76783300
 H                  4.54540600    4.90640700   -2.58449600
 H                  3.80505600    0.86898100   -6.55380900
 H                  5.18059400   -0.82887600   -7.73320300
 H                  7.12540600   -1.89257700   -6.61440000
 H                  8.52490400   -2.17209500   -4.49738000
 H                  8.85845700   -1.60632000   -2.09765100
 H                  5.64787800    1.04089800   -2.12285100
 H                 -8.87581200    1.58579300    2.10846800
 H                 -8.54502000    3.73788700    3.31278400
 H                 -7.14197700    5.84695100    3.63235500
 H                 -5.19171200    7.21221700    2.92452300
 H                 -3.81107400    6.54384900    0.97235600
 H                 -5.65120600    2.33105400   -0.41400500
 H                 -5.84380600    4.50165300   -1.99850800
 H                 -4.54689600    3.83935700   -4.00381300
 H                 -0.96653900    3.58701200   -1.59301900
 H                 -2.26227700    4.22610800    0.39674500
 H                 -1.23120900    2.89354600   -7.72574700
 H                 -0.02977200    1.28865700   -9.24177900
 H                  1.18510200   -0.66517500   -8.23032300
 H                  0.95067100   -3.01302100   -2.52676300
 H                  2.24719300   -4.17101500   -0.78814100
 H                  5.83307700   -3.75552500   -3.15690300
 H                  4.53454500   -2.57237900   -4.90479600
 H                  3.80098400   -6.55012200   -0.87689200
 H                  5.17997600   -7.73380700    0.81353100
 H                  7.12721900   -6.61771700    1.87710300
 H                  8.52866800   -4.50185400    2.15848400
 H                  8.85951800   -2.10036200    1.59962300
 H                  5.63882800   -2.11617300   -1.03531800
 N                 -7.24475500    0.81408100   -1.88280700
 N                  0.00425800   -5.41928700   -0.74823000
 N                  7.24314300    0.26511200    2.02909500
 N                 -7.25542000   -1.87443800   -0.80872400
 N                  0.00935300   -0.75325800    5.39734800
 N                  7.25251300    2.03138800   -0.26370500
 N                 -7.25863100   -0.80036800    1.87884600
 N                  0.00556800    5.40327600    0.75112500
 N                  7.24986400   -0.26199200   -2.03072000
 N                 -7.25940400    1.88722900    0.80634600
 N                 -0.00793400    0.75858900   -5.39772800
 N                  7.24563600   -2.02852400    0.26197100
 Pd                -7.35136600    0.00691300   -0.00236900
 Pd                 7.34366800    0.00128900   -0.00058500

