%nprocshared=48
%mem=120GB
%chk=m6_l1_FINAL.chk
# SP PBE1PBE/def2svp empiricaldispersion=GD3BJ scrf=(solvent=dmso)

m6_l1

12 1
 Pd                -5.08025400   -5.77106000   -7.45331900
 Pd                -6.64134400    8.22682700   -1.83900900
 Pd                 5.09558300    5.77588600    7.46369000
 Pd                 6.64746700   -8.22857500    1.83912100
 Pd                 6.72683100    3.74602100   -7.45848600
 Pd                -6.71872900   -3.74997800    7.46405400
 C                 -6.68336200   -3.39426800   -6.79152800
 N                 -6.32582900   -4.21008500   -7.79734000
 C                 -6.79058600   -3.96438300   -9.03367900
 C                 -7.62653000   -2.89549500   -9.30373500
 C                 -8.00825800   -2.02292600   -8.27266300
 C                 -8.88489800   -0.86510100   -8.52180000
 C                 -9.86857900   -0.92573900   -9.53404800
 C                -10.71742300    0.14189400   -9.80234900
 C                -10.54645500    1.28408000   -9.03283500
 O                -11.26534100    2.43199600   -9.14908200
 C                -10.77675400    3.29782100   -8.22189000
 C                -11.22693700    4.59321100   -8.00911100
 C                -10.58344200    5.32395900   -7.01698800
 C                 -9.52930000    4.77976000   -6.24967300
 C                 -8.87414100    5.59289000   -5.20996900
 C                 -8.33086600    5.00815800   -4.05516200
 C                 -7.71219500    5.79812900   -3.10373700
 N                 -7.60261500    7.12983100   -3.24526800
 C                 -8.11787600    7.71484100   -4.33935000
 C                 -8.75611300    6.98661300   -5.32768900
 C                 -9.10301000    3.46523600   -6.48306500
 C                 -9.72826600    2.72140500   -7.48073300
 C                 -9.57545800    1.38463400   -8.01890400
 C                 -8.74170500    0.30032700   -7.75670700
 C                 -7.51034100   -2.30388700   -6.99044700
 H                 -6.29677800   -3.63197500   -5.79906600
 H                 -6.47252100   -4.64209000   -9.82809100
 H                 -7.95249200   -2.73708000  -10.33175000
 H                 -9.99055400   -1.84509700  -10.10970500
 H                -11.48351500    0.08511400  -10.57626500
 H                -12.04826100    5.01417100   -8.58987900
 H                -10.92741600    6.33960900   -6.81310400
 H                 -8.40525000    3.93586600   -3.87343400
 H                 -7.29423000    5.35829600   -2.19635300
 H                 -8.00525100    8.79731600   -4.42466700
 H                 -9.13433700    7.51621500   -6.20207000
 H                 -8.27446100    3.03734700   -5.91590200
 H                 -7.97019300    0.37321500   -6.98807300
 H                 -7.78131300   -1.69161300   -6.13013600
 C                 -2.54719800   -7.08990400   -6.74783500
 N                 -3.82364000   -7.32043000   -7.09946000
 C                 -4.25628200   -8.58893300   -7.19360100
 C                 -3.42753500   -9.66665300   -6.93669200
 C                 -2.09259300   -9.45388200   -6.55839700
 C                 -1.18336800  -10.57448600   -6.26029700
 C                 -1.34302800  -11.81256900   -6.92191700
 C                 -0.51028700  -12.89656500   -6.66954300
 C                  0.48668100  -12.71079200   -5.72222000
 O                  1.38844900  -13.64831700   -5.32762700
 C                  2.17467700  -13.06541100   -4.38415100
 C                  3.22091000  -13.68078800   -3.71137200
 C                  3.89637400  -12.91316600   -2.76964100
 C                  3.55007300  -11.56811300   -2.51160200
 C                  4.29436500  -10.79366900   -1.50301300
 C                  4.47736900   -9.40762700   -1.63013000
 C                  5.17144300   -8.70817100   -0.65978600
 N                  5.68397200   -9.31361400    0.42476900
 C                  5.52671600  -10.64017100    0.56745000
 C                  4.84959800  -11.40302800   -0.36715600
 C                  2.49325200  -10.97236400   -3.21326000
 C                  1.79688800  -11.72958700   -4.15214900
 C                  0.67599200  -11.49432500   -5.04006000
 C                 -0.16109200  -10.41568700   -5.31475700
 C                 -1.66592600   -8.11917500   -6.47181900
 H                 -2.22643900   -6.04781000   -6.69259900
 H                 -5.30068700   -8.73889200   -7.47422900
 H                 -3.84459400  -10.67132500   -7.00827900
 H                 -2.12521100  -11.92187800   -7.67530200
 H                 -0.63077600  -13.84603800   -7.19204500
 H                  3.50069500  -14.71471900   -3.91584000
 H                  4.73647600  -13.36259200   -2.23701400
 H                  4.10306600   -8.86307900   -2.49714500
 H                  5.33040200   -7.63205400   -0.75036400
 H                  5.94943000  -11.09770000    1.46376200
 H                  4.73649600  -12.47153800   -0.18336300
 H                  2.19676900   -9.94198000   -3.00858900
 H                 -0.03825400   -9.47407500   -4.77660700
 H                 -0.63741500   -7.86746100   -6.21258100
 C                 -3.29080000   -3.81522600   -8.72225300
 N                 -3.80344500   -5.05065700   -8.85068300
 C                 -3.45504700   -5.79615000   -9.91268500
 C                 -2.58403400   -5.32976800  -10.88147800
 C                 -2.02966600   -4.04533100  -10.76887000
 C                 -1.09039900   -3.51269500  -11.77151700
 C                 -1.19709300   -3.90620800  -13.12413100
 C                 -0.33937800   -3.41885300  -14.10365300
 C                  0.64180200   -2.52949500  -13.68850800
 O                  1.57439700   -1.94831300  -14.48898200
 C                  2.34039400   -1.15786900  -13.69093200
 C                  3.40751200   -0.37637000  -14.11113100
 C                  4.06027600    0.36820300  -13.13526500
 C                  3.67108000    0.32910800  -11.77785600
 C                  4.39753000    1.12816700  -10.77548400
 C                  4.53310900    0.68849400   -9.44905300
 C                  5.21536800    1.46239600   -8.52843500
 N                  5.76070600    2.64525300   -8.85815300
 C                  5.64734200    3.08784700  -10.12156600
 C                  4.98447400    2.36222600  -11.09579900
 C                  2.59118700   -0.47259900  -11.38425600
 C                  1.91775700   -1.21656600  -12.34976000
 C                  0.78556300   -2.12071400  -12.34944900
 C                 -0.09017000   -2.61077900  -11.38396500
 C                 -2.41041600   -3.28841400   -9.64937100
 H                 -3.60403200   -3.23360100   -7.85279500
 H                 -3.88305300   -6.79835400   -9.97889900
 H                 -2.32445500   -5.99006900  -11.70917200
 H                 -1.99239300   -4.59158400  -13.42276500
 H                 -0.43550200   -3.71503700  -15.14868000
 H                  3.72131800   -0.35342600  -15.15519300
 H                  4.91656000    0.97726300  -13.43072900
 H                  4.13194000   -0.27241400   -9.12616200
 H                  5.33819100    1.12801100   -7.49660100
 H                  6.09636300    4.05611100  -10.35031800
 H                  4.90873800    2.78358400  -12.09836200
 H                  2.26146800   -0.49481200  -10.34398400
 H                  0.02260400   -2.31649100  -10.33898000
 H                 -2.04575200   -2.27187700   -9.50189600
 C                 -5.92046700   -6.67331100   -4.78451100
 N                 -6.35113300   -6.47760700   -6.04216800
 C                 -7.63490700   -6.73775100   -6.34032700
 C                 -8.52922300   -7.19853700   -5.39038300
 C                 -8.10766000   -7.40275800   -4.06712100
 C                 -9.03261900   -7.87490000   -3.02165400
 C                -10.11094200   -8.72345600   -3.35816000
 C                -11.00805900   -9.18999000   -2.40429500
 C                -10.80251600   -8.77246600   -1.09684200
 O                -11.57360800   -9.10645600   -0.02832600
 C                -11.03603500   -8.48480200    1.05460400
 C                -11.52536700   -8.55306100    2.35142500
 C                -10.83689400   -7.82966000    3.31841500
 C                 -9.68696700   -7.06974000    3.00868700
 C                 -8.99163200   -6.31562500    4.06661800
 C                 -7.60412300   -6.10589100    4.02747600
 C                 -6.98401500   -5.37953600    5.02768800
 N                 -7.67107000   -4.85209600    6.05495300
 C                 -8.99913400   -5.04463200    6.11933900
 C                 -9.68317800   -5.76577800    5.15714900
 C                 -9.21231700   -7.02771800    1.69070500
 C                 -9.89683800   -7.73552400    0.70571600
 C                 -9.74222400   -7.92596200   -0.72248700
 C                 -8.84689900   -7.47768500   -1.69044800
 C                 -6.76044200   -7.12742300   -3.78428300
 H                 -4.86881000   -6.46370000   -4.58076100
 H                 -7.95228800   -6.56048400   -7.36960000
 H                 -9.56324800   -7.36958100   -5.69030500
 H                -10.23538300   -9.04903000   -4.39244200
 H                -11.83150000   -9.85436900   -2.66818700
 H                -12.40514900   -9.14798700    2.59861900
 H                -11.18698400   -7.87650900    4.35116000
 H                 -6.98910400   -6.52503000    3.23082200
 H                 -5.90499100   -5.21527200    5.01472600
 H                 -9.52656200   -4.59663000    6.96349500
 H                -10.76432800   -5.86675600    5.25372700
 H                 -8.34039500   -6.42529800    1.42933800
 H                 -8.03334500   -6.80384700   -1.41591700
 H                 -6.34558100   -7.28701700   -2.78892100
 C                 -4.34869400    9.12590700   -0.23301200
 N                 -5.66586700    9.30573700   -0.42850000
 C                 -6.32333600   10.19738300    0.33126400
 C                 -5.68438000   10.93895500    1.30940400
 C                 -4.31060200   10.76531400    1.53868800
 C                 -3.59426800   11.52736100    2.57667300
 C                 -4.00118900   12.84109200    2.89942200
 C                 -3.34982700   13.59798200    3.86666400
 C                 -2.27983500   12.99656900    4.51428200
 O                 -1.52299700   13.56573200    5.48974600
 C                 -0.59374400   12.64325600    5.85540900
 C                  0.38546900   12.82143600    6.82257700
 C                  1.24695500   11.75322200    7.04482800
 C                  1.13228500   10.53784500    6.33386200
 C                  2.06205900    9.42859400    6.60980100
 C                  1.66160700    8.08911000    6.48103500
 C                  2.55801600    7.06932100    6.74296800
 N                  3.82466800    7.31452700    7.11894600
 C                  4.23302700    8.58762000    7.25115000
 C                  3.38754300    9.65653100    7.01132200
 C                  0.13058400   10.38750800    5.36539500
 C                 -0.73469600   11.45096100    5.12093400
 C                 -1.84938800   11.68795600    4.22597400
 C                 -2.50686900   10.94920200    3.24543200
 C                 -3.64846900    9.82687400    0.73151500
 H                 -3.84465500    8.40305200   -0.87714800
 H                 -7.39410100   10.31035800    0.15153000
 H                 -6.27641700   11.63246100    1.90681600
 H                 -4.83419600   13.29310900    2.35788400
 H                 -3.65954700   14.61663400    4.10229800
 H                  0.46973400   13.75238900    7.38407700
 H                  2.01510400   11.85494700    7.81365400
 H                  0.64126800    7.82598300    6.20147800
 H                  2.25693900    6.02312800    6.65772400
 H                  5.27047200    8.74894000    7.55062300
 H                  3.78379600   10.66677000    7.11572300
 H                  0.04418500    9.46452700    4.78913200
 H                 -2.19508400    9.92655200    3.02559000
 H                 -2.57666300    9.65194200    0.82692600
 C                  6.68237700    3.39731800    6.78442900
 N                  6.35149600    4.22082400    7.79326000
 C                  6.85305400    3.98877200    9.01772600
 C                  7.70274200    2.92663300    9.27253000
 C                  8.05881300    2.04743000    8.23790400
 C                  8.95140600    0.89790900    8.46790000
 C                  9.97370400    0.97640600    9.43978200
 C                 10.84239600   -0.08136300    9.68311600
 C                 10.65184700   -1.23171200    8.93043400
 O                 11.38853700   -2.37052300    9.02367500
 C                 10.87126100   -3.24860800    8.12383600
 C                 11.33584100   -4.53535100    7.89053000
 C                 10.67010500   -5.27420500    6.91917900
 C                  9.56647500   -4.75390000    6.20703300
 C                  8.88678200   -5.57725500    5.19143200
 C                  7.51224400   -5.44234300    4.93930600
 C                  6.90387400   -6.22567100    3.97568300
 N                  7.59070600   -7.12672900    3.25328800
 C                  8.90687300   -7.27714600    3.47638500
 C                  9.57873600   -6.53045600    4.42814900
 C                  9.11897200   -3.45171200    6.46791300
 C                  9.78076600   -2.69222400    7.42952000
 C                  9.64009900   -1.35092900    7.95933200
 C                  8.78677400   -0.27651300    7.72120400
 C                  7.52115600    2.31363500    6.96867200
 H                  6.26608100    3.62415700    5.80121400
 H                  6.55533900    4.67268400    9.81476900
 H                  8.06064500    2.77925200   10.29158200
 H                 10.11062200    1.90244900   10.00122600
 H                 11.63874700   -0.01040300   10.42464800
 H                 12.17833500   -4.94724600    8.44697000
 H                 10.99869000   -6.29725800    6.72724200
 H                  6.89694900   -4.74566400    5.50883400
 H                  5.83406500   -6.13962000    3.77627700
 H                  9.43406200   -8.01225400    2.86535000
 H                 10.65164800   -6.68244200    4.54636300
 H                  8.28433500   -3.02459900    5.90907600
 H                  7.98563100   -0.36324300    6.98497100
 H                  7.77159000    1.69621600    6.10585600
 C                  5.91854000    6.69103500    4.79089900
 N                  6.35466100    6.49048200    6.04582500
 C                  7.63964100    6.75036400    6.33966100
 C                  8.52978500    7.21679900    5.38883400
 C                  8.10271300    7.42440500    4.06796100
 C                  9.02377700    7.90070700    3.02093800
 C                 10.09442000    8.75995300    3.35456100
 C                 10.98770000    9.23068700    2.39905500
 C                 10.78647300    8.80590500    1.09325700
 O                 11.55465500    9.14275800    0.02336700
 C                 11.02326800    8.51146600   -1.05701600
 C                 11.51083400    8.57999500   -2.35454900
 C                 10.82871500    7.84658300   -3.31855800
 C                  9.68741800    7.07510200   -3.00517700
 C                  8.99662100    6.31201200   -4.05965800
 C                  7.61368300    6.07637100   -4.00672600
 C                  6.99562200    5.34570100   -5.00477400
 N                  7.68076500    4.83840700   -6.04359500
 C                  9.00500300    5.05230200   -6.11993100
 C                  9.68659600    5.77861900   -5.15940600
 C                  9.21492200    7.03264700   -1.68642500
 C                  9.89187400    7.75205100   -0.70485000
 C                  9.73455000    7.94760300    0.72226800
 C                  8.84237700    7.49580200    1.69153100
 C                  6.75463600    7.14913500    3.78910400
 H                  4.86615300    6.48199200    4.59066900
 H                  7.96136200    6.56693700    7.36630200
 H                  9.56493900    7.38735100    5.68510500
 H                 10.21536200    9.09042100    4.38775600
 H                 11.80494100    9.90364500    2.66048900
 H                 12.38398200    9.18337000   -2.60476500
 H                 11.17697900    7.89470500   -4.35183800
 H                  7.00063600    6.47927000   -3.20048300
 H                  5.92002100    5.16136500   -4.98050200
 H                  9.53042500    4.61764900   -6.97233800
 H                 10.76485000    5.89834900   -5.26517700
 H                  8.34937000    6.42273600   -1.42161800
 H                  8.03494600    6.81338900    1.41994200
 H                  6.33596000    7.31322700    2.79608500
 C                  3.32646600    3.81042500    8.74928400
 N                  3.82933300    5.05063300    8.86859000
 C                  3.46728500    5.80458800    9.92001500
 C                  2.58889200    5.34345000   10.88452300
 C                  2.04132600    4.05552400   10.77867800
 C                  1.09130600    3.53131700   11.77554000
 C                  1.18601000    3.93514800   13.12591800
 C                  0.31734600    3.45800100   14.10063300
 C                 -0.66251300    2.56865000   13.68258700
 O                 -1.60485000    1.99753500   14.47869400
 C                 -2.36613200    1.20363600   13.67980100
 C                 -3.44002900    0.42989400   14.09681900
 C                 -4.08636400   -0.32060200   13.12141100
 C                 -3.68449100   -0.29460400   11.76740000
 C                 -4.40478900   -1.10172100   10.76699900
 C                 -4.53181100   -0.67509600    9.43558700
 C                 -5.21019200   -1.45718000    8.51894400
 N                 -5.75939600   -2.63585400    8.85749000
 C                 -5.65366400   -3.06632700   10.12574200
 C                 -4.99468600   -2.33198700   11.09598100
 C                 -2.59819400    0.49995200   11.37671500
 C                 -1.93060300    1.24960200   12.34217000
 C                 -0.79484300    2.14968300   12.34539300
 C                  0.09224700    2.62938300   11.38476600
 C                  2.43911300    3.28822400    9.67247400
 H                  3.65247200    3.22190800    7.88947900
 H                  3.88918600    6.80967900    9.98046000
 H                  2.31693800    6.01094500   11.70243600
 H                  1.98043400    4.62055900   13.42681500
 H                  0.40401700    3.76194500   15.14425900
 H                 -3.76339500    0.41701300   15.13812600
 H                 -4.94753800   -0.92406900   13.41407500
 H                 -4.12813900    0.28240000    9.10598500
 H                 -5.32707600   -1.13263300    7.48330900
 H                 -6.10552600   -4.03154500   10.36210500
 H                 -4.92397400   -2.74392800   12.10279400
 H                 -2.25894000    0.51175000   10.33931900
 H                 -0.01073900    2.32767800   10.34078900
 H                  2.08095500    2.26835800    9.53180700
 C                 -4.63939600    8.06428500   -3.98819800
 N                 -5.36546300    8.92179300   -3.25125800
 C                 -5.21914400   10.24208800   -3.45237300
 C                 -4.34115100   10.74718700   -4.39491800
 C                 -3.56334700    9.87375100   -5.17118000
 C                 -2.60380800   10.37216700   -6.17230300
 C                 -2.85420700   11.58537400   -6.85157700
 C                 -1.97624800   12.09333300   -7.80197000
 C                 -0.82717400   11.35521400   -8.04805700
 O                  0.15429600   11.68835300   -8.92758000
 C                  1.09529600   10.70998200   -8.85596900
 C                  2.27328600   10.66668100   -9.58819100
 C                  3.11243800    9.58252400   -9.35899100
 C                  2.78637900    8.56358800   -8.43622800
 C                  3.70951600    7.43435800   -8.22570100
 C                  3.24154300    6.15874500   -7.87244000
 C                  4.13538300    5.12320500   -7.66994500
 N                  5.46226100    5.29222200   -7.79908400
 C                  5.93587400    6.50199000   -8.14147600
 C                  5.09871100    7.58122800   -8.36214900
 C                  1.58501200    8.63210200   -7.71740500
 C                  0.73646300    9.71673600   -7.92555200
 C                 -0.54002600   10.14496500   -7.38940200
 C                 -1.43728100    9.64583800   -6.44836200
 C                 -3.73874500    8.49949800   -4.94311600
 H                 -4.79229600    6.99874200   -3.80630200
 H                 -5.81925700   10.90879800   -2.83031500
 H                 -4.25201700   11.82901600   -4.49516100
 H                 -3.77596900   12.13376200   -6.64928600
 H                 -2.18104300   13.02376600   -8.33239600
 H                  2.52467200   11.44360000  -10.31088100
 H                  4.03758800    9.51071600   -9.93357100
 H                  2.17573300    5.95255300   -7.77351000
 H                  3.78426900    4.12482700   -7.40143500
 H                  7.01897600    6.60604300   -8.23061400
 H                  5.54666700    8.54262900   -8.61411600
 H                  1.32773300    7.86666500   -6.98300200
 H                 -1.21610200    8.71900200   -5.91598400
 H                 -3.19415700    7.75451800   -5.52330700
 C                 -7.41054500    6.84976300    0.63993800
 N                 -7.89937400    7.51453400   -0.42069800
 C                 -9.22754900    7.68419000   -0.53061100
 C                -10.10936100    7.19306000    0.41589400
 C                 -9.62612700    6.48713200    1.52877900
 C                -10.53215400    5.93575500    2.55185900
 C                -11.74993100    6.58824000    2.84726200
 C                -12.63124100    6.10571800    3.80795600
 C                -12.26363100    4.93853700    4.46251100
 O                -12.98844300    4.30782500    5.42431800
 C                -12.27950700    3.20824000    5.79371800
 C                -12.66053800    2.28705000    6.75929000
 C                -11.78748700    1.23137000    6.99574600
 C                -10.57454800    1.08865000    6.28562200
 C                 -9.68199000   -0.04978300    6.56559700
 C                 -8.87871100   -0.61391500    5.56184600
 C                 -8.04652400   -1.67844800    5.85591900
 N                 -7.97045300   -2.20178700    7.09124600
 C                 -8.72867400   -1.68040400    8.07017200
 C                 -9.58869300   -0.62002500    7.84482100
 C                -10.22017900    2.03313400    5.31287400
 C                -11.07684700    3.10384200    5.07010700
 C                -11.06299400    4.25601700    4.19148400
 C                -10.18750700    4.76034700    3.23303000
 C                 -8.23425400    6.32706100    1.61990600
 H                 -6.32595700    6.74142800    0.70300600
 H                 -9.58935900    8.22083600   -1.40977100
 H                -11.17751200    7.34430300    0.25951200
 H                -12.00133100    7.51571800    2.32965100
 H                -13.56325900    6.62133800    4.04145500
 H                -13.60183900    2.38476200    7.30101200
 H                -12.06899100    0.47864800    7.73436200
 H                 -8.91232500   -0.24650100    4.53610000
 H                 -7.42452800   -2.13449000    5.08299200
 H                 -8.63397300   -2.12382700    9.06336200
 H                -10.16214400   -0.22787400    8.68491500
 H                 -9.27544400    1.95158300    4.77244300
 H                 -9.26287400    4.22924900    2.99969000
 H                 -7.77560500    5.81701000    2.46706600
 C                  8.03126300   -6.19139000    0.23368100
 N                  7.91720900   -7.51567400    0.43049100
 C                  8.63666800   -8.35374600   -0.33435600
 C                  9.48941800   -7.89481400   -1.32267300
 C                  9.61977300   -6.51671900   -1.55560100
 C                 10.50377800   -5.98807400   -2.60948400
 C                 11.67955800   -6.68587700   -2.96532700
 C                 12.54142200   -6.22341300   -3.95298400
 C                 12.18698300   -5.04127300   -4.58753800
 O                 12.88915400   -4.43484000   -5.58102900
 C                 12.19818600   -3.31573800   -5.92455300
 C                 12.56614800   -2.40902400   -6.90856900
 C                 11.71380800   -1.33067500   -7.11557500
 C                 10.53365700   -1.15195100   -6.35978100
 C                  9.65931500    0.00615400   -6.61652200
 C                  8.89727900    0.59190500   -5.59333200
 C                  8.07794300    1.67106900   -5.87013400
 N                  7.97767800    2.19107800   -7.10523400
 C                  8.70118000    1.65256900   -8.10119600
 C                  9.54369300    0.57467400   -7.89466100
 C                 10.19305700   -2.08175300   -5.36792600
 C                 11.02962100   -3.17432100   -5.15285200
 C                 11.02272300   -4.31937300   -4.26449200
 C                 10.17715600   -4.79247300   -3.26398100
 C                  8.86107400   -5.66368500   -0.73843500
 H                  7.44083200   -5.53978000    0.88028800
 H                  8.51391000   -9.42318700   -0.15277400
 H                 10.02717800   -8.62657200   -1.92581000
 H                 11.94172100   -7.60256700   -2.43403500
 H                 13.45426600   -6.75959700   -4.21427700
 H                 13.48193500   -2.53512900   -7.48689500
 H                 11.98602300   -0.58994700   -7.86953800
 H                  8.95294200    0.22975700   -4.56672400
 H                  7.48656400    2.14191000   -5.08263700
 H                  8.59211100    2.09656200   -9.09268100
 H                 10.08667100    0.16772600   -8.74772500
 H                  9.27283900   -1.97232900   -4.79129300
 H                  9.26069900   -4.25279500   -3.01854900
 H                  8.92561800   -4.57982500   -0.83473200
 C                  4.03849200   -8.71858500    3.10348700
 N                  5.35971800   -8.92067000    3.24114900
 C                  5.81127000   -9.58025300    4.32099500
 C                  4.95583600  -10.06088300    5.29657000
 C                  3.57179000   -9.85765000    5.18084600
 C                  2.62708900  -10.34414900    6.20170300
 C                  2.91165200  -11.52296500    6.92644200
 C                  2.04411500  -12.02359800    7.89033400
 C                  0.88107600  -11.30184000    8.11881600
 O                 -0.08589300  -11.62259600    9.01885900
 C                 -1.04101600  -10.65926500    8.93021800
 C                 -2.21089000  -10.60991700    9.67505600
 C                 -3.06405800   -9.54021400    9.42939000
 C                 -2.75888400   -8.54133000    8.47815400
 C                 -3.68978100   -7.42047300    8.25813300
 C                 -3.22835900   -6.14822200    7.88482000
 C                 -4.12709900   -5.11800700    7.67807400
 N                 -5.45222800   -5.29002600    7.82043400
 C                 -5.91981300   -6.49693600    8.18079700
 C                 -5.07720900   -7.57083300    8.40778800
 C                 -1.56768400   -8.61763600    7.74363600
 C                 -0.70582700   -9.68836600    7.96796100
 C                  0.56628200  -10.11910800    7.42380600
 C                  1.44247600   -9.63884000    6.45366400
 C                  3.12762400   -9.16502300    4.04331700
 H                  3.70636100   -8.18967700    2.20786300
 H                  6.89110200   -9.71796000    4.40504500
 H                  5.38537600  -10.57023800    6.15932700
 H                  3.82481100  -12.07983300    6.70878200
 H                  2.26223400  -12.94180500    8.43651700
 H                 -2.44489000  -11.37045600   10.42064000
 H                 -3.98239800   -9.46202800   10.01409700
 H                 -2.16387400   -5.93988900    7.77662800
 H                 -3.78137500   -4.12137000    7.39626200
 H                 -7.00188700   -6.60284100    8.27933600
 H                 -5.51910400   -8.53086300    8.67510300
 H                 -1.32799300   -7.86812200    6.98712600
 H                  1.21907000   -8.71256600    5.92114800
 H                  2.06664600   -8.98936200    3.86471500

