%nprocshared=48
%mem=120GB
%chk=m6_l1_opt.chk
# SP PBE1PBE/def2svp empiricaldispersion=GD3BJ scrf=(solvent=dmso) 

m6_l1

12 1
 Pd                 11.81900000    0.61000000   -1.27600000
 Pd                  0.66800000   10.94700000   -0.56300000
 Pd                 -9.81200000   -0.30000000   -0.00900000
 Pd                  1.40300000  -10.71300000   -0.55100000
 Pd                  1.63400000    0.23500000   10.26800000
 Pd                  0.29400000   -0.01500000  -11.45400000
 C                 10.63500000    3.24500000   -1.81800000
 N                 11.74400000    2.63400000   -1.38000000
 C                 12.76100000    3.40600000   -0.97500000
 C                 12.69800000    4.78300000   -0.97500000
 C                 11.54300000    5.44700000   -1.42200000
 C                 11.43200000    6.90200000   -1.42400000
 C                 12.59600000    7.69100000   -1.52300000
 C                 12.55500000    9.06800000   -1.49200000
 C                 11.31300000    9.67000000   -1.35600000
 O                 11.06900000   10.99000000   -1.26900000
 C                  9.73900000   11.14100000   -1.14700000
 C                  9.05100000   12.33700000   -1.00900000
 C                  7.67800000   12.27800000   -0.91000000
 C                  6.97000000   11.05900000   -0.95600000
 C                  5.51300000   11.05900000   -0.87000000
 C                  4.78800000    9.91400000   -0.49600000
 C                  3.41500000    9.94300000   -0.43300000
 N                  2.69200000   11.04100000   -0.68600000
 C                  3.35600000   12.14800000   -1.03900000
 C                  4.73000000   12.19200000   -1.15300000
 C                  7.68400000    9.86000000   -1.08000000
 C                  9.06600000    9.89400000   -1.16300000
 C                 10.11800000    8.91000000   -1.28800000
 C                 10.18400000    7.52700000   -1.31900000
 C                 10.50000000    4.61400000   -1.86000000
 H                  9.82700000    2.59700000   -2.15600000
 H                 13.65700000    2.89300000   -0.63400000
 H                 13.54400000    5.34000000   -0.60800000
 H                 13.55300000    7.21500000   -1.66000000
 H                 13.44900000    9.66400000   -1.56600000
 H                  9.58100000   13.27500000   -0.97900000
 H                  7.14500000   13.20200000   -0.76500000
 H                  5.29800000    9.00100000   -0.23600000
 H                  2.86000000    9.04500000   -0.16500000
 H                  2.75600000   13.03200000   -1.24100000
 H                  5.18800000   13.11200000   -1.47500000
 H                  7.17600000    8.91000000   -1.14700000
 H                  9.27900000    6.94600000   -1.21800000
 H                  9.59100000    5.03900000   -2.25500000
 C                 10.80200000   -2.07300000   -0.64200000
 N                 11.84500000   -1.41700000   -1.16500000
 C                 12.87700000   -2.14200000   -1.61400000
 C                 12.90100000   -3.52000000   -1.56100000
 C                 11.82200000   -4.23000000   -1.00900000
 C                 11.81900000   -5.68500000   -0.89900000
 C                 13.04400000   -6.37000000   -0.76800000
 C                 13.10700000   -7.73900000   -0.63300000
 C                 11.91000000   -8.44000000   -0.63700000
 O                 11.76600000   -9.77000000   -0.50800000
 C                 10.44800000  -10.03200000   -0.54000000
 C                  9.85600000  -11.28000000   -0.41900000
 C                  8.48100000  -11.34000000   -0.46600000
 C                  7.68600000  -10.18700000   -0.62500000
 C                  6.23200000  -10.31700000   -0.63500000
 C                  5.38900000   -9.28900000   -0.18300000
 C                  4.02300000   -9.45700000   -0.18100000
 N                  3.42700000  -10.58300000   -0.59300000
 C                  4.20800000  -11.57900000   -1.03000000
 C                  5.58400000  -11.48500000   -1.07200000
 C                  8.30000000   -8.93500000   -0.74500000
 C                  9.68200000   -8.85100000   -0.70500000
 C                 10.66000000   -7.78700000   -0.77000000
 C                 10.62000000   -6.40800000   -0.89900000
 C                 10.75300000   -3.44600000   -0.54600000
 H                  9.97800000   -1.46000000   -0.27700000
 H                 13.71500000   -1.59000000   -2.03400000
 H                 13.75400000   -4.04200000   -1.96200000
 H                 13.96500000   -5.81100000   -0.72900000
 H                 14.04600000   -8.25600000   -0.52300000
 H                 10.45800000  -12.16400000   -0.28800000
 H                  8.00700000  -12.29900000   -0.33600000
 H                  5.80600000   -8.36800000    0.19300000
 H                  3.36600000   -8.66400000    0.17600000
 H                  3.70500000  -12.48400000   -1.36100000
 H                  6.15100000  -12.31600000   -1.45800000
 H                  7.71200000   -8.04300000   -0.90500000
 H                  9.67200000   -5.90800000   -1.03500000
 H                  9.89600000   -3.91000000   -0.08500000
 C                 10.85200000    1.15600000    1.44900000
 N                 11.90300000    0.70900000    0.75000000
 C                 12.97000000    0.27900000    1.43600000
 C                 13.01600000    0.26800000    2.81400000
 C                 11.92600000    0.73200000    3.57000000
 C                 11.94400000    0.74300000    5.02900000
 C                 13.17800000    0.84700000    5.70200000
 C                 13.26700000    0.83900000    7.07600000
 C                 12.08600000    0.72100000    7.79400000
 O                 11.97200000    0.67000000    9.13200000
 C                 10.66300000    0.56300000    9.41500000
 C                 10.10300000    0.47300000   10.68100000
 C                  8.73100000    0.39700000   10.76500000
 C                  7.90700000    0.40600000    9.62200000
 C                  6.45800000    0.34900000    9.78600000
 C                  5.60900000   -0.18900000    8.80500000
 C                  4.24600000   -0.21800000    8.99900000
 N                  3.65800000    0.24300000   10.11100000
 C                  4.44600000    0.75000000   11.06800000
 C                  5.81700000    0.82600000   10.94300000
 C                  8.49100000    0.47100000    8.35100000
 C                  9.87000000    0.54700000    8.24000000
 C                 10.82300000    0.64200000    7.15500000
 C                 10.75900000    0.65200000    5.77100000
 C                 10.82500000    1.18800000    2.82600000
 H                 10.00200000    1.51200000    0.86900000
 H                 13.81700000   -0.07200000    0.85200000
 H                 13.89600000   -0.11900000    3.30000000
 H                 14.08500000    0.97300000    5.13500000
 H                 14.21300000    0.91900000    7.58500000
 H                 10.72800000    0.46600000   11.55800000
 H                  8.28700000    0.29200000   11.74200000
 H                  6.01800000   -0.60700000    7.89900000
 H                  3.58600000   -0.63600000    8.24000000
 H                  3.95200000    1.11100000   11.96700000
 H                  6.38600000    1.27300000   11.74100000
 H                  7.87900000    0.50300000    7.46200000
 H                  9.80400000    0.54600000    5.27700000
 H                  9.95800000    1.58900000    3.32500000
 C                 10.54000000   -0.01300000   -3.83000000
 N                 11.66000000    0.48900000   -3.29400000
 C                 12.62300000    0.89700000   -4.12900000
 C                 12.50200000    0.82100000   -5.50100000
 C                 11.34200000    0.28900000   -6.08700000
 C                 11.18500000    0.15400000   -7.53100000
 C                 12.32800000   -0.02100000   -8.33700000
 C                 12.24500000   -0.18100000   -9.70200000
 C                 10.98200000   -0.16200000  -10.27400000
 O                 10.69600000   -0.31100000  -11.57900000
 C                  9.35900000   -0.25200000  -11.70300000
 C                  8.63700000   -0.38000000  -12.88000000
 C                  7.26400000   -0.30100000  -12.79600000
 C                  6.59800000   -0.10400000  -11.57000000
 C                  5.13900000   -0.06200000  -11.54900000
 C                  4.39800000   -0.48500000  -10.43400000
 C                  3.02200000   -0.45700000  -10.46100000
 N                  2.32200000   -0.03900000  -11.52300000
 C                  3.00600000    0.37000000  -12.59900000
 C                  4.38400000    0.37900000  -12.64900000
 C                  7.34200000    0.02300000  -10.39200000
 C                  8.72500000   -0.04700000  -10.45200000
 C                  9.80900000    0.01300000   -9.49700000
 C                  9.91700000    0.17000000   -8.12500000
 C                 10.34700000   -0.13000000   -5.18800000
 H                  9.77300000   -0.34300000   -3.12900000
 H                 13.52400000    1.30200000   -3.67400000
 H                 13.30700000    1.19100000   -6.11500000
 H                 13.30100000   -0.07100000   -7.87600000
 H                 13.12200000   -0.32400000  -10.31100000
 H                  9.14000000   -0.54200000  -13.81800000
 H                  6.69000000   -0.43600000  -13.69800000
 H                  4.90000000   -0.86300000   -9.55800000
 H                  2.44200000   -0.79300000   -9.60100000
 H                  2.41900000    0.70500000  -13.45100000
 H                  4.87100000    0.74400000  -13.53800000
 H                  6.85400000    0.21100000   -9.44700000
 H                  9.03000000    0.33900000   -7.53200000
 H                  9.43500000   -0.57400000   -5.55300000
 C                 -1.92200000    9.66100000   -0.04100000
 N                 -1.34700000   10.80400000   -0.43600000
 C                 -2.15200000   11.83700000   -0.71500000
 C                 -3.52500000   11.76000000   -0.63200000
 C                 -4.15300000   10.57500000   -0.21200000
 C                 -5.60300000   10.46100000   -0.09500000
 C                 -6.38100000   11.62600000    0.07100000
 C                 -7.75500000   11.58700000    0.15500000
 C                 -8.36800000   10.34600000    0.07900000
 O                 -9.69000000   10.10500000    0.12400000
 C                 -9.85400000    8.77400000    0.04000000
 C                -11.06200000    8.09300000    0.04700000
 C                -11.01800000    6.71800000   -0.00900000
 C                 -9.80200000    6.00700000   -0.07400000
 C                 -9.82200000    4.54900000   -0.08800000
 C                 -8.80000000    3.78600000   -0.67600000
 C                 -8.85100000    2.41000000   -0.64900000
 N                 -9.85700000    1.72900000   -0.08400000
 C                -10.85300000    2.43300000    0.46900000
 C                -10.86900000    3.81200000    0.49300000
 C                 -8.59300000    6.71300000   -0.11500000
 C                 -8.61300000    8.09700000   -0.06100000
 C                 -7.62000000    9.14900000   -0.04900000
 C                 -6.23900000    9.21400000   -0.14500000
 C                 -3.28400000    9.51200000    0.09100000
 H                 -1.25000000    8.83500000    0.18600000
 H                 -1.67000000   12.76400000   -1.01700000
 H                 -4.10700000   12.62400000   -0.90900000
 H                 -5.89800000   12.58300000    0.16700000
 H                 -8.34100000   12.48300000    0.27500000
 H                -11.99500000    8.63000000    0.09900000
 H                -11.95100000    6.18000000   -0.03600000
 H                 -7.97700000    4.27000000   -1.17600000
 H                 -8.06000000    1.81600000   -1.10400000
 H                -11.66600000    1.86300000    0.91100000
 H                -11.68800000    4.31200000    0.98100000
 H                 -7.64800000    6.19100000   -0.14300000
 H                 -5.67300000    8.30700000   -0.29600000
 H                 -3.67300000    8.57300000    0.44900000
 C                 -8.58900000   -2.92200000    0.49300000
 N                 -9.71000000   -2.32400000    0.06800000
 C                -10.72100000   -3.10600000   -0.33100000
 C                -10.64400000   -4.48300000   -0.33300000
 C                 -9.47900000   -5.13400000    0.10900000
 C                 -9.36100000   -6.58800000    0.12900000
 C                -10.52100000   -7.37700000    0.26400000
 C                -10.47500000   -8.75400000    0.27100000
 C                 -9.23200000   -9.35400000    0.13900000
 O                 -8.98500000  -10.67600000    0.10200000
 C                 -7.65600000  -10.82800000   -0.02900000
 C                 -6.97000000  -12.03100000   -0.11200000
 C                 -5.59800000  -11.97600000   -0.21800000
 C                 -4.89600000  -10.75400000   -0.24500000
 C                 -3.44000000  -10.76400000   -0.33600000
 C                 -2.71600000   -9.70500000   -0.90800000
 C                 -1.34100000   -9.74800000   -0.96400000
 N                 -0.62500000  -10.77800000   -0.49700000
 C                 -1.29100000  -11.80800000    0.04000000
 C                 -2.66600000  -11.83500000    0.14300000
 C                 -5.60600000   -9.54900000   -0.18400000
 C                 -6.98700000   -9.58000000   -0.07700000
 C                 -8.04100000   -8.59500000    0.02500000
 C                 -8.11100000   -7.21100000    0.01900000
 C                 -8.43900000   -4.29000000    0.53300000
 H                 -7.78500000   -2.26600000    0.82300000
 H                -11.62500000   -2.60300000   -0.66600000
 H                -11.48600000   -5.04900000   -0.69500000
 H                -11.47700000   -6.90000000    0.40000000
 H                -11.36500000   -9.35100000    0.37500000
 H                 -7.50100000  -12.96800000   -0.09200000
 H                 -5.05900000  -12.90400000   -0.31700000
 H                 -3.23200000   -8.85800000   -1.33200000
 H                 -0.77800000   -8.92800000   -1.40800000
 H                 -0.69300000  -12.64000000    0.40300000
 H                 -3.13500000  -12.68400000    0.61300000
 H                 -5.08900000   -8.60100000   -0.17600000
 H                 -7.21100000   -6.62900000   -0.11200000
 H                 -7.52200000   -4.70600000    0.91700000
 C                 -8.53600000    0.30400000    2.56600000
 N                 -9.64200000   -0.21000000    2.01200000
 C                -10.60200000   -0.65400000    2.83200000
 C                -10.49300000   -0.60300000    4.20600000
 C                 -9.34800000   -0.05900000    4.81000000
 C                 -9.20700000    0.05200000    6.25800000
 C                -10.36100000    0.20200000    7.05400000
 C                -10.29400000    0.34100000    8.42200000
 C                 -9.03800000    0.32300000    9.00800000
 O                 -8.76900000    0.45400000   10.31900000
 C                 -7.43300000    0.40300000   10.45700000
 C                 -6.72500000    0.51900000   11.64400000
 C                 -5.35100000    0.45000000   11.57600000
 C                 -4.66900000    0.27600000   10.35500000
 C                 -3.21000000    0.24300000   10.34900000
 C                 -2.46100000    0.68100000    9.24400000
 C                 -1.08500000    0.66000000    9.28300000
 N                 -0.39300000    0.23800000   10.34900000
 C                 -1.08300000   -0.18500000   11.41500000
 C                 -2.46200000   -0.20300000   11.45100000
 C                 -5.39900000    0.16300000    9.16500000
 C                 -6.78200000    0.22300000    9.21100000
 C                 -7.85500000    0.17000000    8.24200000
 C                 -7.94600000    0.03800000    6.86600000
 C                 -8.35500000    0.39800000    3.92800000
 H                 -7.77200000    0.66400000    1.87800000
 H                -11.49100000   -1.06900000    2.36200000
 H                -11.29500000   -1.00100000    4.80700000
 H                -11.32900000    0.25100000    6.58300000
 H                -11.18000000    0.46600000    9.02400000
 H                 -7.24000000    0.66200000   12.57900000
 H                 -4.78800000    0.57600000   12.48600000
 H                 -2.95700000    1.06500000    8.36700000
 H                 -0.50000000    1.00600000    8.43100000
 H                 -0.50200000   -0.52400000   12.26900000
 H                 -2.95500000   -0.57900000   12.33200000
 H                 -4.89900000   -0.00800000    8.22300000
 H                 -7.05200000   -0.11200000    6.27900000
 H                 -7.45500000    0.85200000    4.30900000
 C                 -8.89300000   -0.83500000   -2.74900000
 N                 -9.92700000   -0.37600000   -2.03300000
 C                -10.99700000    0.07300000   -2.70000000
 C                -11.06300000    0.09400000   -4.07700000
 C                 -9.99000000   -0.37900000   -4.85100000
 C                -10.02000000   -0.37300000   -6.31000000
 C                -11.25900000   -0.44100000   -6.98000000
 C                -11.35100000   -0.41700000   -8.35400000
 C                -10.17100000   -0.32200000   -9.07500000
 O                -10.05600000   -0.26300000  -10.41400000
 C                 -8.74400000   -0.18300000  -10.69700000
 C                 -8.17800000   -0.09800000  -11.96000000
 C                 -6.80400000   -0.04900000  -12.04100000
 C                 -5.98300000   -0.08000000  -10.89600000
 C                 -4.53200000   -0.04500000  -11.04700000
 C                 -3.68800000    0.47100000  -10.05000000
 C                 -2.32300000    0.47400000  -10.22500000
 N                 -1.72800000    0.00900000  -11.33100000
 C                 -2.51100000   -0.47500000  -12.30300000
 C                 -3.88600000   -0.52400000  -12.19900000
 C                 -6.57200000   -0.14400000   -9.62700000
 C                 -7.95200000   -0.19300000   -9.52200000
 C                 -8.90600000   -0.27700000   -8.43800000
 C                 -8.83700000   -0.30100000   -7.05500000
 C                 -8.88700000   -0.85800000   -4.12600000
 H                 -8.03800000   -1.20600000   -2.18400000
 H                -11.83100000    0.43200000   -2.10100000
 H                -11.94500000    0.49500000   -4.54800000
 H                -12.16700000   -0.54900000   -6.41100000
 H                -12.30100000   -0.47000000   -8.86000000
 H                 -8.79900000   -0.07300000  -12.84000000
 H                 -6.35500000    0.05200000  -13.01500000
 H                 -4.10200000    0.89100000   -9.14800000
 H                 -1.66600000    0.87400000   -9.45300000
 H                 -2.01100000   -0.84000000  -13.19700000
 H                 -4.45200000   -0.95300000  -13.00900000
 H                 -5.96500000   -0.19700000   -8.73500000
 H                 -7.87700000   -0.22100000   -6.56500000
 H                 -8.03400000   -1.27100000   -4.63900000
 C                  1.08500000    9.84500000    2.09800000
 N                  0.76800000   10.98000000    1.46200000
 C                  0.55800000   12.06900000    2.21100000
 C                  0.66400000   12.06100000    3.58700000
 C                  1.03600000   10.89200000    4.27400000
 C                  1.22400000   10.84400000    5.72000000
 C                  1.47400000   12.03300000    6.43600000
 C                  1.68900000   12.04300000    7.79600000
 C                  1.66400000   10.82700000    8.46100000
 O                  1.87400000   10.62600000    9.77300000
 C                  1.80000000    9.30100000    9.99000000
 C                  1.98600000    8.65300000   11.20200000
 C                  1.89900000    7.27800000   11.21000000
 C                  1.63800000    6.53700000   10.04100000
 C                  1.61100000    5.07900000   10.10700000
 C                  1.98200000    4.28100000    9.01200000
 C                  1.97600000    2.90800000    9.11600000
 N                  1.62800000    2.26400000   10.23800000
 C                  1.26900000    3.00300000   11.29600000
 C                  1.24300000    4.38200000   11.26900000
 C                  1.44300000    7.20700000    8.82700000
 C                  1.52000000    8.58900000    8.79700000
 C                  1.42300000    9.61000000    7.77700000
 C                  1.19300000    9.62500000    6.41200000
 C                  1.23800000    9.76300000    3.46100000
 H                  1.22400000    8.96100000    1.47500000
 H                  0.29100000   12.98000000    1.68300000
 H                  0.44800000   12.97000000    4.12300000
 H                  1.53600000   12.97100000    5.90900000
 H                  1.88100000   12.95900000    8.33200000
 H                  2.19900000    9.21300000   12.09800000
 H                  2.08100000    6.76100000   12.13900000
 H                  2.30400000    4.73700000    8.09000000
 H                  2.27200000    2.28500000    8.27300000
 H                  0.99100000    2.46100000   12.19600000
 H                  0.92200000    4.91400000   12.15000000
 H                  1.20100000    6.66200000    7.92700000
 H                  0.96400000    8.70000000    5.90500000
 H                  1.53700000    8.82200000    3.89300000
 C                  0.92100000    9.70000000   -3.20500000
 N                  0.59500000   10.84100000   -2.58500000
 C                  0.29200000   11.89700000   -3.34900000
 C                  0.29600000   11.85000000   -4.72700000
 C                  0.65500000   10.67100000   -5.40100000
 C                  0.72500000   10.59600000   -6.85700000
 C                  0.95400000   11.77400000   -7.59800000
 C                  1.04600000   11.77100000   -8.97200000
 C                  0.90900000   10.55500000   -9.62200000
 O                  0.98100000   10.34800000  -10.94800000
 C                  0.82900000    9.02800000  -11.15300000
 C                  0.86300000    8.38000000  -12.37800000
 C                  0.71200000    7.01100000  -12.37800000
 C                  0.53600000    6.27700000  -11.18800000
 C                  0.43500000    4.82300000  -11.25600000
 C                  0.88000000    3.99800000  -10.21000000
 C                  0.81100000    2.62900000  -10.32400000
 N                  0.33100000    2.01200000  -11.41200000
 C                 -0.10700000    2.77500000  -12.42000000
 C                 -0.07900000    4.15400000  -12.37900000
 C                  0.49600000    6.94800000   -9.96000000
 C                  0.64000000    8.32600000   -9.93700000
 C                  0.68800000    9.34800000   -8.91300000
 C                  0.59200000    9.37500000   -7.53100000
 C                  0.96900000    9.57800000   -4.57500000
 H                  1.16200000    8.85300000   -2.56200000
 H                  0.03900000   12.81900000   -2.83100000
 H                  0.00900000   12.73200000   -5.27500000
 H                  1.10100000   12.70900000   -7.08300000
 H                  1.22400000   12.67500000   -9.53000000
 H                  1.01000000    8.93400000  -13.29000000
 H                  0.77500000    6.49000000  -13.31900000
 H                  1.30900000    4.43100000   -9.32000000
 H                  1.16400000    1.98500000   -9.51800000
 H                 -0.49700000    2.25500000  -13.29200000
 H                 -0.46900000    4.70800000  -13.21700000
 H                  0.32100000    6.41000000   -9.04000000
 H                  0.38200000    8.46400000   -6.99100000
 H                  1.27400000    8.63800000   -5.00600000
 C                  0.97800000   -9.56900000    2.12000000
 N                  1.44700000  -10.64600000    1.47700000
 C                  1.94800000  -11.64400000    2.21600000
 C                  2.00100000  -11.60000000    3.59300000
 C                  1.50800000  -10.48500000    4.29000000
 C                  1.51200000  -10.41100000    5.74700000
 C                  1.42800000  -11.60000000    6.49800000
 C                  1.40100000  -11.59700000    7.87500000
 C                  1.46600000  -10.36800000    8.51500000
 O                  1.44300000  -10.16000000    9.84300000
 C                  1.50200000   -8.83100000   10.03800000
 C                  1.48200000   -8.17900000   11.26100000
 C                  1.53900000   -6.80300000   11.25100000
 C                  1.61200000   -6.06500000   10.05300000
 C                  1.63800000   -4.60700000   10.11100000
 C                  1.11700000   -3.81100000    9.07800000
 C                  1.13600000   -2.43800000    9.17800000
 N                  1.63300000   -1.79100000   10.24000000
 C                  2.13500000   -2.52700000   11.24000000
 C                  2.16000000   -3.90600000   11.21100000
 C                  1.63200000   -6.73900000    8.82600000
 C                  1.57900000   -8.12300000    8.81200000
 C                  1.55500000   -9.15100000    7.79400000
 C                  1.57500000   -9.17800000    6.40900000
 C                  0.98800000   -9.45300000    3.49200000
 H                  0.56700000   -8.77500000    1.49800000
 H                  2.32300000  -12.51000000    1.67400000
 H                  2.44000000  -12.42900000    4.12400000
 H                  1.34000000  -12.54600000    5.98900000
 H                  1.32600000  -12.50800000    8.44400000
 H                  1.41600000   -8.73700000   12.18100000
 H                  1.48500000   -6.28400000   12.19400000
 H                  0.67300000   -4.26900000    8.20900000
 H                  0.72600000   -1.81700000    8.38100000
 H                  2.53200000   -1.98400000   12.09400000
 H                  2.60100000   -4.43500000   12.04000000
 H                  1.72500000   -6.19600000    7.89700000
 H                  1.67700000   -8.25700000    5.85400000
 H                  0.56500000   -8.57200000    3.94800000
 C                  1.75000000   -9.64800000   -3.26700000
 N                  1.34900000  -10.72400000   -2.57900000
 C                  0.86100000  -11.76100000   -3.27300000
 C                  0.74200000  -11.75000000   -4.64600000
 C                  1.15300000  -10.63100000   -5.39100000
 C                  1.04500000  -10.58100000   -6.84500000
 C                  1.07500000  -11.78200000   -7.58300000
 C                  0.95400000  -11.80200000   -8.95500000
 C                  0.79900000  -10.58600000   -9.60300000
 O                  0.64400000  -10.40200000  -10.92600000
 C                  0.53700000   -9.07900000  -11.13400000
 C                  0.35800000   -8.45100000  -12.35700000
 C                  0.29800000   -7.07500000  -12.36500000
 C                  0.40700000   -6.31300000  -11.18400000
 C                  0.36000000   -4.85700000  -11.26400000
 C                 -0.09500000   -4.06000000  -10.20000000
 C                 -0.11500000   -2.68800000  -10.31400000
 N                  0.27800000   -2.04300000  -11.42000000
 C                  0.70400000   -2.78000000  -12.45300000
 C                  0.76500000   -4.15700000  -12.41300000
 C                  0.56100000   -6.96400000   -9.95400000
 C                  0.62500000   -8.34800000   -9.92200000
 C                  0.79100000   -9.35600000   -8.89800000
 C                  0.91200000   -9.36100000   -7.51800000
 C                  1.67600000   -9.56500000   -4.64000000
 H                  2.15600000   -8.82200000   -2.68300000
 H                  0.55000000  -12.63000000   -2.69800000
 H                  0.31400000  -12.60800000   -5.13700000
 H                  1.23000000  -12.71800000   -7.07300000
 H                  0.97800000  -12.72300000   -9.51400000
 H                  0.27300000   -9.02800000  -13.26300000
 H                  0.12600000   -6.57900000  -13.30600000
 H                 -0.45600000   -4.51700000   -9.29300000
 H                 -0.47000000   -2.06800000   -9.49200000
 H                  1.01000000   -2.23800000  -13.34500000
 H                  1.14400000   -4.68500000  -13.27300000
 H                  0.67300000   -6.40100000   -9.03900000
 H                  0.86100000   -8.43000000   -6.97300000
 H                  2.04700000   -8.68100000   -5.13200000


