%chk=cis_l2_ld_FINAL.chk
%nprocshared=48
%mem=120GB
# SP PBE1PBE/def2svp empiricaldispersion=GD3BJ scrf=(solvent=dmso)

cis_l2_ld

4 1
 Pd                -6.14170000   -2.23520000   -0.09580000
 Pd                 6.14140000   -2.23520000    0.09600000
 C                 -0.06390000   -5.61000000    4.84150000
 C                  1.13640000   -5.09550000    4.35850000
 C                  1.13280000   -4.11270000    3.35820000
 C                 -0.09520000   -3.65490000    2.86730000
 C                 -1.30500000   -4.18390000    3.33100000
 C                 -1.28060000   -5.17230000    4.32380000
 C                 -2.56710000   -3.71760000    2.72320000
 C                 -2.74870000   -2.36620000    2.39910000
 C                 -3.88110000   -1.97320000    1.70950000
 N                 -4.82410000   -2.84960000    1.33000000
 C                 -4.70430000   -4.13570000    1.68740000
 C                 -3.60240000   -4.60120000    2.39030000
 C                  2.38630000   -3.60030000    2.76950000
 C                  2.48950000   -2.28330000    2.29840000
 C                  3.63410000   -1.87590000    1.63470000
 N                  4.66880000   -2.70310000    1.42750000
 C                  4.61920000   -3.94690000    1.92670000
 C                  3.50760000   -4.42470000    2.60160000
 H                 -0.05070000   -6.36420000    5.63070000
 H                  2.08170000   -5.45140000    4.77330000
 H                 -0.11110000   -2.92250000    2.05750000
 H                 -2.21570000   -5.58670000    4.70660000
 H                 -2.00720000   -1.61480000    2.67250000
 H                 -4.03210000   -0.92920000    1.42730000
 H                 -5.49880000   -4.81260000    1.36780000
 H                 -3.53270000   -5.66530000    2.61940000
 H                  1.67850000   -1.56720000    2.43480000
 H                  3.71900000   -0.86190000    1.23930000
 H                  5.48820000   -4.58370000    1.74750000
 H                  3.50700000   -5.46000000    2.94400000
 C                  0.06360000   -5.61070000   -4.84090000
 C                  1.28030000   -5.17290000   -4.32330000
 C                  1.30480000   -4.18430000   -3.33070000
 C                  0.09500000   -3.65530000   -2.86710000
 C                 -1.13310000   -4.11320000   -3.35790000
 C                 -1.13670000   -5.09620000   -4.35800000
 C                 -2.38650000   -3.60070000   -2.76920000
 C                 -2.48970000   -2.28370000   -2.29820000
 C                 -3.63430000   -1.87620000   -1.63440000
 N                 -4.66900000   -2.70330000   -1.42720000
 C                 -4.61950000   -3.94720000   -1.92640000
 C                 -3.50790000   -4.42510000   -2.60120000
 C                  2.56690000   -3.71790000   -2.72290000
 C                  3.60230000   -4.60140000   -2.39000000
 C                  4.70410000   -4.13580000   -1.68710000
 N                  4.82380000   -2.84970000   -1.32970000
 C                  3.88070000   -1.97350000   -1.70930000
 C                  2.74840000   -2.36650000   -2.39890000
 H                  0.05040000   -6.36510000   -5.63000000
 H                  2.21550000   -5.58740000   -4.70610000
 H                  0.11090000   -2.92280000   -2.05740000
 H                 -2.08190000   -5.45220000   -4.77270000
 H                 -1.67870000   -1.56770000   -2.43450000
 H                 -3.71910000   -0.86220000   -1.23910000
 H                 -5.48840000   -4.58400000   -1.74710000
 H                 -3.50730000   -5.46040000   -2.94350000
 H                  3.53270000   -5.66560000   -2.61910000
 H                  5.49860000   -4.81270000   -1.36760000
 H                  4.03170000   -0.92940000   -1.42710000
 H                  2.00680000   -1.61520000   -2.67230000
 C                  9.68410000   -2.40480000   -2.24510000
 C                  9.83690000   -1.09440000   -2.76360000
 C                  8.81810000   -0.13980000   -2.46670000
 C                  8.91790000    1.20070000   -2.95960000
 C                 10.00130000    1.52650000   -3.75180000
 C                 11.00710000    0.57910000   -4.04800000
 C                 10.93870000   -0.70620000   -3.56180000
 C                  7.85340000    2.18500000   -2.66030000
 C                  7.14070000    2.78160000   -3.70920000
 C                  6.05180000    3.60350000   -3.44970000
 C                  5.64640000    3.85040000   -2.12570000
 C                  4.43290000    4.55770000   -1.87710000
 C                  3.33680000    5.07660000   -1.74010000
 C                  1.99320000    5.49870000   -1.66720000
 C                  1.43910000    6.76540000   -1.59230000
 C                  0.02850000    6.75420000   -1.62800000
 C                 -0.50210000    5.47840000   -1.73120000
 C                 -1.83260000    5.04470000   -1.86470000
 C                 -2.93350000    4.55040000   -2.04960000
 C                 -4.14890000    3.87770000   -2.34700000
 C                 -4.09220000    2.53560000   -2.77230000
 C                 -5.25210000    1.84940000   -3.09480000
 C                 -6.51160000    2.46380000   -2.98740000
 C                 -7.74220000    1.72990000   -3.35140000
 C                 -7.98550000    0.39280000   -2.89490000
 C                 -9.11990000   -0.33420000   -3.36930000
 C                 -9.28240000   -1.67070000   -2.92600000
 C                 -8.39090000   -2.21590000   -2.04180000
 N                 -7.35600000   -1.48780000   -1.54100000
 C                 -7.16380000   -0.24290000   -1.93970000
 C                -10.03460000    0.29660000   -4.24460000
 C                 -9.82160000    1.60210000   -4.62310000
 C                 -8.68050000    2.30930000   -4.18710000
 C                 -6.56360000    3.80520000   -2.57700000
 C                 -5.40490000    4.50570000   -2.26250000
 S                  0.75770000    4.28510000   -1.76570000
 C                  6.40340000    3.31000000   -1.07190000
 C                  7.49330000    2.49200000   -1.33880000
 C                  7.71510000   -0.57780000   -1.70340000
 N                  7.61680000   -1.80400000   -1.22500000
 C                  8.58900000   -2.72140000   -1.48660000
 H                 10.43980000   -3.16560000   -2.44640000
 H                 10.09130000    2.54270000   -4.14150000
 H                 11.85390000    0.88180000   -4.66790000
 H                 11.71990000   -1.43500000   -3.78630000
 H                  7.41720000    2.55950000   -4.74230000
 H                  5.47990000    4.03100000   -4.27520000
 H                  2.04540000    7.66850000   -1.52440000
 H                 -0.59540000    7.64680000   -1.58870000
 H                 -3.12250000    2.04350000   -2.86600000
 H                 -5.17490000    0.82510000   -3.46600000
 H                -10.12170000   -2.26860000   -3.28450000
 H                 -8.48100000   -3.24330000   -1.68760000
 H                 -6.34020000    0.30290000   -1.47600000
 H                -10.90090000   -0.26050000   -4.60600000
 H                -10.52800000    2.09750000   -5.29260000
 H                 -8.51370000    3.32470000   -4.55250000
 H                 -7.53170000    4.30180000   -2.48170000
 H                 -5.46680000    5.54500000   -1.93510000
 H                  6.11650000    3.51680000   -0.04050000
 H                  8.06590000    2.07450000   -0.50680000
 H                  6.89590000    0.10660000   -1.47950000
 H                  8.44440000   -3.71750000   -1.06490000
 C                  9.28220000   -1.67050000    2.92590000
 C                  9.11990000   -0.33390000    3.36910000
 C                  7.98540000    0.39310000    2.89470000
 C                  7.74230000    1.73030000    3.35110000
 C                  8.68070000    2.30970000    4.18670000
 C                  9.82180000    1.60240000    4.62270000
 C                 10.03460000    0.29690000    4.24430000
 C                  6.51170000    2.46430000    2.98710000
 C                  6.56380000    3.80560000    2.57650000
 C                  5.40510000    4.50620000    2.26210000
 C                  4.14910000    3.87820000    2.34680000
 C                  2.93380000    4.55100000    2.04940000
 C                  1.83280000    5.04520000    1.86420000
 C                  0.50230000    5.47890000    1.73070000
 C                 -0.02820000    6.75460000    1.62640000
 C                 -1.43880000    6.76590000    1.59070000
 C                 -1.99300000    5.49930000    1.66660000
 C                 -3.33660000    5.07720000    1.73950000
 C                 -4.43260000    4.55840000    1.87670000
 C                 -5.64620000    3.85090000    2.12540000
 C                 -6.40340000    3.31080000    1.07170000
 C                 -7.49320000    2.49280000    1.33870000
 C                 -7.85310000    2.18550000    2.66030000
 C                 -8.91750000    1.20130000    2.95970000
 C                 -8.81790000   -0.13920000    2.46680000
 C                 -9.83680000   -1.09370000    2.76390000
 C                 -9.68410000   -2.40410000    2.24540000
 C                 -8.58920000   -2.72090000    1.48680000
 N                 -7.61690000   -1.80360000    1.22510000
 C                 -7.71520000   -0.57730000    1.70330000
 C                -10.93840000   -0.70540000    3.56230000
 C                -11.00670000    0.57990000    4.04850000
 C                -10.00080000    1.52720000    3.75210000
 C                 -7.14010000    2.78200000    3.70910000
 C                 -6.05120000    3.60390000    3.44940000
 S                 -0.75750000    4.28570000    1.76610000
 C                  4.09230000    2.53620000    2.77220000
 C                  5.25220000    1.84990000    3.09470000
 C                  7.16370000   -0.24260000    1.93960000
 N                  7.35570000   -1.48770000    1.54100000
 C                  8.39070000   -2.21570000    2.04180000
 H                 10.12150000   -2.26840000    3.28440000
 H                  8.51400000    3.32510000    4.55190000
 H                 10.52820000    2.09780000    5.29210000
 H                 10.90090000   -0.26030000    4.60580000
 H                  7.53200000    4.30210000    2.48100000
 H                  5.46710000    5.54540000    1.93460000
 H                  0.59570000    7.64720000    1.58640000
 H                 -2.04510000    7.66900000    1.52210000
 H                 -6.11670000    3.51780000    0.04030000
 H                 -8.06610000    2.07540000    0.50680000
 H                -10.43990000   -3.16490000    2.44690000
 H                 -8.44480000   -3.71700000    1.06520000
 H                 -6.89590000    0.10700000    1.47920000
 H                -11.71960000   -1.43420000    3.78690000
 H                -11.85330000    0.88270000    4.66850000
 H                -10.09070000    2.54340000    4.14180000
 H                 -7.41630000    2.55970000    4.74220000
 H                 -5.47910000    4.03120000    4.27490000
 H                  3.12260000    2.04430000    2.86610000
 H                  5.17500000    0.82580000    3.46610000
 H                  6.34000000    0.30310000    1.47600000
 H                  8.48070000   -3.24310000    1.68760000

 1 12 1.0 42 1.0 91 1.0 154 1.0
 2 18 1.0 48 1.0 102 1.0 165 1.0
 3 4 1.5 8 1.5 21 1.0
 4 5 1.5 22 1.0
 5 6 1.5 15 1.0
 6 7 1.5 23 1.0
 7 8 1.5 9 1.0
 8 24 1.0
 9 10 1.5 14 1.5
 10 11 2.0 25 1.0
 11 12 1.5 26 1.0
 12 13 1.5
 13 14 1.5 27 1.0
 14 28 1.0
 15 16 1.5 20 1.5
 16 17 2.0 29 1.0
 17 18 1.5 30 1.0
 18 19 1.5
 19 20 2.0 31 1.0
 20 32 1.0
 21
 22
 23
 24
 25
 26
 27
 28
 29
 30
 31
 32
 33 34 1.5 38 1.5 51 1.0
 34 35 1.5 52 1.0
 35 36 1.5 45 1.0
 36 37 1.5 53 1.0
 37 38 1.5 39 1.0
 38 54 1.0
 39 40 1.5 44 1.5
 40 41 2.0 55 1.0
 41 42 1.5 56 1.0
 42 43 1.5
 43 44 2.0 57 1.0
 44 58 1.0
 45 46 1.5 50 1.5
 46 47 1.5 59 1.0
 47 48 1.5 60 1.0
 48 49 1.5
 49 50 2.0 61 1.0
 50 62 1.0
 51
 52
 53
 54
 55
 56
 57
 58
 59
 60
 61
 62
 63 64 1.5 103 2.0 104 1.0
 64 65 1.5 69 1.5
 65 66 1.5 101 1.5
 66 67 2.0 70 1.0
 67 68 1.5 105 1.0
 68 69 2.0 106 1.0
 69 107 1.0
 70 71 1.5 100 1.5
 71 72 1.5 108 1.0
 72 73 1.5 109 1.0
 73 74 1.5 99 1.5
 74 75 3.0
 75 76 1.5
 76 77 2.0 98 1.0
 77 78 1.5 110 1.0
 78 79 2.0 111 1.0
 79 80 1.5 98 1.0
 80 81 3.0
 81 82 1.5
 82 83 1.5 97 1.5
 83 84 2.0 112 1.0
 84 85 1.5 113 1.0
 85 86 1.0 96 1.5
 86 87 1.5 95 2.0
 87 88 1.5 92 1.5
 88 89 1.5 93 1.5
 89 90 2.0 114 1.0
 90 91 1.5 115 1.0
 91 92 2.0
 92 116 1.0
 93 94 2.0 117 1.0
 94 95 1.5 118 1.0
 95 119 1.0
 96 97 1.5 120 1.0
 97 121 1.0
 98
 99 100 1.5 122 1.0
 100 123 1.0
 101 102 2.0 124 1.0
 102 103 1.5
 103 125 1.0
 104
 105
 106
 107
 108
 109
 110
 111
 112
 113
 114
 115
 116
 117
 118
 119
 120
 121
 122
 123
 124
 125
 126 127 1.5 166 2.0 167 1.0
 127 128 1.5 132 1.5
 128 129 1.5 164 1.5
 129 130 2.0 133 1.0
 130 131 1.5 168 1.0
 131 132 2.0 169 1.0
 132 170 1.0
 133 134 1.5 163 1.5
 134 135 1.5 171 1.0
 135 136 1.5 172 1.0
 136 137 1.5 162 1.5
 137 138 3.0
 138 139 1.5
 139 140 2.0 161 1.0
 140 141 1.5 173 1.0
 141 142 2.0 174 1.0
 142 143 1.5 161 1.0
 143 144 3.0
 144 145 1.5
 145 146 1.5 160 1.5
 146 147 1.5 175 1.0
 147 148 1.5 176 1.0
 148 149 1.0 159 1.5
 149 150 1.5 158 2.0
 150 151 1.5 155 1.5
 151 152 1.5 156 1.5
 152 153 2.0 177 1.0
 153 154 1.5 178 1.0
 154 155 2.0
 155 179 1.0
 156 157 2.0 180 1.0
 157 158 1.5 181 1.0
 158 182 1.0
 159 160 1.5 183 1.0
 160 184 1.0
 161
 162 163 2.0 185 1.0
 163 186 1.0
 164 165 2.0 187 1.0
 165 166 1.5
 166 188 1.0
 167
 168
 169
 170
 171
 172
 173
 174
 175
 176
 177
 178
 179
 180
 181
 182
 183
 184
 185
 186
 187
 188

