%chk=cis_l3_lc_FINAL.chk
%nprocshared=48
%mem=120GB
# SP PBE1PBE/def2svp empiricaldispersion=GD3BJ scrf=(solvent=dmso)

cis_l3_lc

4 1
 Pd                 6.61870000   -2.41320000   -0.27410000
 Pd                -6.61870000   -2.41320000   -0.27400000
 C                  3.02880000   -1.67810000   -2.29440000
 C                  4.29050000   -1.53430000   -1.75160000
 N                  5.17080000   -2.54650000   -1.70920000
 C                  4.85320000   -3.70940000   -2.29820000
 C                  3.60640000   -3.93410000   -2.85810000
 C                  2.63120000   -2.92500000   -2.80490000
 C                  1.24440000   -3.18270000   -3.16620000
 C                  0.70530000   -4.19950000   -3.93420000
 C                 -0.70530000   -4.19950000   -3.93420000
 C                 -1.24440000   -3.18270000   -3.16620000
 S                  0.00000000   -2.22070000   -2.45320000
 C                 -2.63120000   -2.92500000   -2.80490000
 C                 -3.02890000   -1.67820000   -2.29440000
 C                 -4.29050000   -1.53430000   -1.75150000
 N                 -5.17090000   -2.54650000   -1.70920000
 C                 -4.85320000   -3.70940000   -2.29820000
 C                 -3.60640000   -3.93410000   -2.85810000
 H                  2.34840000   -0.82520000   -2.27800000
 H                  4.59210000   -0.58990000   -1.29420000
 H                  5.60650000   -4.49890000   -2.27160000
 H                  3.38170000   -4.92080000   -3.26370000
 H                  1.30990000   -4.92220000   -4.48280000
 H                 -1.31000000   -4.92220000   -4.48280000
 H                 -2.34840000   -0.82520000   -2.27790000
 H                 -4.59210000   -0.58990000   -1.29410000
 H                 -5.60650000   -4.49890000   -2.27150000
 H                 -3.38170000   -4.92070000   -3.26370000
 C                  3.01470000   -2.64360000    1.85450000
 C                  4.27390000   -2.26420000    1.43370000
 N                  5.16510000   -3.14800000    0.95860000
 C                  4.86010000   -4.45480000    0.98090000
 C                  3.61560000   -4.91360000    1.38010000
 C                  2.62990000   -3.99170000    1.76760000
 C                  1.24450000   -4.38990000    1.97240000
 C                  0.70550000   -5.64170000    2.21180000
 C                 -0.70550000   -5.64170000    2.21170000
 C                 -1.24440000   -4.39000000    1.97240000
 S                  0.00000000   -3.21320000    1.75510000
 C                 -2.62980000   -3.99180000    1.76750000
 C                 -3.01470000   -2.64370000    1.85470000
 C                 -4.27400000   -2.26440000    1.43390000
 N                 -5.16510000   -3.14810000    0.95860000
 C                 -4.86000000   -4.45490000    0.98060000
 C                 -3.61550000   -4.91370000    1.37970000
 H                  2.32510000   -1.87540000    2.20850000
 H                  4.56200000   -1.21080000    1.43310000
 H                  5.62240000   -5.14600000    0.61650000
 H                  3.40150000   -5.98040000    1.31400000
 H                  1.30990000   -6.53240000    2.38670000
 H                 -1.30980000   -6.53240000    2.38660000
 H                 -2.32530000   -1.87560000    2.20890000
 H                 -4.56220000   -1.21100000    1.43340000
 H                 -5.62220000   -5.14610000    0.61600000
 H                 -3.40120000   -5.98050000    1.31330000
 C                 -9.90860000   -2.47210000    2.47380000
 C                 -9.77030000   -1.23490000    3.15410000
 C                 -8.61310000   -0.45140000    2.86930000
 C                 -8.39250000    0.79980000    3.52640000
 C                 -9.36670000    1.25780000    4.39120000
 C                -10.52440000    0.49160000    4.66110000
 C                -10.72300000   -0.73830000    4.07510000
 C                 -7.14200000    1.55370000    3.27740000
 C                 -7.16510000    2.85950000    2.76950000
 C                 -5.98190000    3.53920000    2.50200000
 C                 -4.73670000    2.92970000    2.74290000
 C                 -3.51530000    3.61700000    2.48890000
 C                 -2.45470000    4.19040000    2.30910000
 C                 -1.21850000    4.88030000    2.14200000
 C                 -1.20760000    6.26320000    1.88130000
 C                  0.00000000    6.94070000    1.75780000
 C                  1.20760000    6.26330000    1.88140000
 C                  1.21860000    4.88040000    2.14200000
 C                  2.45480000    4.19050000    2.30920000
 C                  3.51550000    3.61720000    2.48890000
 C                  4.73680000    2.92980000    2.74300000
 C                  4.71380000    1.62320000    3.26690000
 C                  5.89870000    0.95110000    3.52940000
 C                  7.14220000    1.55380000    3.27730000
 C                  8.39260000    0.79980000    3.52640000
 C                  8.61310000   -0.45140000    2.86930000
 C                  9.77020000   -1.23500000    3.15410000
 C                  9.90850000   -2.47220000    2.47390000
 C                  8.97770000   -2.85910000    1.54470000
 N                  7.91420000   -2.06650000    1.24020000
 C                  7.73720000   -0.92230000    1.87370000
 C                 10.72290000   -0.73850000    4.07520000
 C                 10.52440000    0.49150000    4.66120000
 C                  9.36680000    1.25770000    4.39120000
 C                  7.16520000    2.85960000    2.76950000
 C                  5.98200000    3.53930000    2.50190000
 C                  0.00010000    4.19540000    2.26740000
 C                 -4.71370000    1.62300000    3.26680000
 C                 -5.89860000    0.95100000    3.52940000
 C                 -7.73710000   -0.92230000    1.87380000
 N                 -7.91420000   -2.06660000    1.24030000
 C                 -8.97770000   -2.85910000    1.54460000
 H                -10.76470000   -3.11690000    2.67830000
 H                 -9.22610000    2.21400000    4.89960000
 H                -11.26380000    0.88280000    5.36330000
 H                -11.61020000   -1.33210000    4.30310000
 H                 -8.12380000    3.33990000    2.56110000
 H                 -6.01400000    4.55160000    2.09540000
 H                 -2.15410000    6.79650000    1.77820000
 H                  0.00000000    8.01270000    1.55350000
 H                  2.15410000    6.79660000    1.77820000
 H                  3.75550000    1.14330000    3.47410000
 H                  5.86230000   -0.05740000    3.94880000
 H                 10.76460000   -3.11710000    2.67850000
 H                  9.05610000   -3.80160000    1.00140000
 H                  6.88310000   -0.31310000    1.57480000
 H                 11.61010000   -1.33230000    4.30330000
 H                 11.26380000    0.88260000    5.36350000
 H                  9.22620000    2.21400000    4.89960000
 H                  8.12390000    3.33990000    2.56100000
 H                  6.01420000    4.55170000    2.09530000
 H                  0.00010000    3.12430000    2.47460000
 H                 -3.75540000    1.14310000    3.47400000
 H                 -5.86220000   -0.05750000    3.94870000
 H                 -6.88290000   -0.31320000    1.57500000
 H                 -9.05610000   -3.80160000    1.00140000
 C                -10.02150000   -1.48460000   -2.67060000
 C                 -9.87870000   -0.09940000   -2.93740000
 C                 -8.67820000    0.53970000   -2.50380000
 C                 -8.46010000    1.93040000   -2.76150000
 C                 -9.47480000    2.64210000   -3.37400000
 C                -10.67300000    2.01490000   -3.78230000
 C                -10.87240000    0.66670000   -3.59070000
 C                 -7.17960000    2.58670000   -2.41420000
 C                 -5.96060000    2.05710000   -2.86910000
 C                 -4.75850000    2.69340000   -2.59360000
 C                 -4.73870000    3.89430000   -1.85930000
 C                 -3.50910000    4.58470000   -1.65250000
 C                 -2.45180000    5.18280000   -1.55210000
 C                 -1.21780000    5.89620000   -1.50390000
 C                 -1.20820000    7.30340000   -1.49820000
 C                  0.00000000    7.99250000   -1.49620000
 C                  1.20810000    7.30330000   -1.49820000
 C                  1.21770000    5.89620000   -1.50390000
 C                  2.45170000    5.18280000   -1.55210000
 C                  3.50900000    4.58460000   -1.65250000
 C                  4.73860000    3.89420000   -1.85940000
 C                  5.95710000    4.41920000   -1.39160000
 C                  7.15630000    3.77340000   -1.66750000
 C                  7.17950000    2.58660000   -2.41430000
 C                  8.46000000    1.93040000   -2.76160000
 C                  8.67810000    0.53970000   -2.50390000
 C                  9.87870000   -0.09940000   -2.93750000
 C                 10.02150000   -1.48460000   -2.67070000
 C                  9.05110000   -2.15690000   -1.97630000
 N                  7.94360000   -1.51660000   -1.51130000
 C                  7.76140000   -0.23390000   -1.76480000
 C                 10.87230000    0.66680000   -3.59080000
 C                 10.67290000    2.01490000   -3.78240000
 C                  9.47470000    2.64210000   -3.37410000
 C                  5.96050000    2.05710000   -2.86930000
 C                  4.75840000    2.69340000   -2.59380000
 C                 -0.00010000    5.20050000   -1.50210000
 C                 -5.95720000    4.41940000   -1.39170000
 C                 -7.15640000    3.77350000   -1.66750000
 C                 -7.76140000   -0.23390000   -1.76470000
 N                 -7.94360000   -1.51660000   -1.51130000
 C                 -9.05110000   -2.15690000   -1.97620000
 H                -10.91160000   -2.01840000   -3.00710000
 H                 -9.33210000    3.70520000   -3.57910000
 H                -11.44140000    2.61340000   -4.27630000
 H                -11.78970000    0.17990000   -3.92720000
 H                 -5.95690000    1.15080000   -3.47950000
 H                 -3.82230000    2.27790000   -2.97110000
 H                 -2.15510000    7.84590000   -1.49930000
 H                  0.00000000    9.08460000   -1.49260000
 H                  2.15510000    7.84580000   -1.49930000
 H                  5.95610000    5.34570000   -0.81440000
 H                  8.09290000    4.19270000   -1.29320000
 H                 10.91160000   -2.01840000   -3.00720000
 H                  9.12980000   -3.22100000   -1.75120000
 H                  6.86820000    0.23690000   -1.35030000
 H                 11.78970000    0.18000000   -3.92730000
 H                 11.44130000    2.61350000   -4.27640000
 H                  9.33200000    3.70520000   -3.57910000
 H                  5.95680000    1.15090000   -3.47970000
 H                  3.82220000    2.27800000   -2.97140000
 H                 -0.00010000    4.10980000   -1.50770000
 H                 -5.95620000    5.34590000   -0.81460000
 H                 -8.09310000    4.19290000   -1.29330000
 H                 -6.86830000    0.23700000   -1.35020000
 H                 -9.12980000   -3.22110000   -1.75120000

 1 5 1.0 32 1.0 86 1.0 152 1.0
 2 17 1.0 44 1.0 97 1.0 163 1.0
 3 4 2.0 8 1.5 20 1.0
 4 5 1.5 21 1.0
 5 6 1.5
 6 7 2.0 22 1.0
 7 8 1.5 23 1.0
 8 9 1.0
 9 10 2.0 13 1.0
 10 11 1.5 24 1.0
 11 12 2.0 25 1.0
 12 13 1.0 14 1.0
 13
 14 15 1.5 19 1.5
 15 16 2.0 26 1.0
 16 17 1.5 27 1.0
 17 18 1.5
 18 19 2.0 28 1.0
 19 29 1.0
 20
 21
 22
 23
 24
 25
 26
 27
 28
 29
 30 31 2.0 35 1.5 47 1.0
 31 32 1.5 48 1.0
 32 33 1.5
 33 34 2.0 49 1.0
 34 35 1.5 50 1.0
 35 36 1.0
 36 37 2.0 40 1.0
 37 38 1.5 51 1.0
 38 39 2.0 52 1.0
 39 40 1.0 41 1.0
 40
 41 42 1.5 46 1.5
 42 43 2.0 53 1.0
 43 44 1.5 54 1.0
 44 45 1.5
 45 46 2.0 55 1.0
 46 56 1.0
 47
 48
 49
 50
 51
 52
 53
 54
 55
 56
 57 58 1.5 98 2.0 99 1.0
 58 59 1.5 63 1.5
 59 60 1.5 96 1.5
 60 61 2.0 64 1.0
 61 62 1.5 100 1.0
 62 63 2.0 101 1.0
 63 102 1.0
 64 65 1.5 95 1.5
 65 66 1.5 103 1.0
 66 67 1.5 104 1.0
 67 68 1.5 94 1.5
 68 69 3.0
 69 70 1.5
 70 71 1.5 93 1.5
 71 72 1.5 105 1.0
 72 73 1.5 106 1.0
 73 74 1.5 107 1.0
 74 75 1.5 93 1.5
 75 76 3.0
 76 77 1.5
 77 78 1.5 92 1.5
 78 79 1.5 108 1.0
 79 80 1.5 109 1.0
 80 81 1.0 91 1.5
 81 82 1.5 90 2.0
 82 83 1.5 87 1.5
 83 84 1.5 88 1.5
 84 85 2.0 110 1.0
 85 86 1.5 111 1.0
 86 87 2.0
 87 112 1.0
 88 89 2.0 113 1.0
 89 90 1.5 114 1.0
 90 115 1.0
 91 92 1.5 116 1.0
 92 117 1.0
 93 118 1.0
 94 95 1.5 119 1.0
 95 120 1.0
 96 97 2.0 121 1.0
 97 98 1.5
 98 122 1.0
 99
 100
 101
 102
 103
 104
 105
 106
 107
 108
 109
 110
 111
 112
 113
 114
 115
 116
 117
 118
 119
 120
 121
 122
 123 124 1.5 164 2.0 165 1.0
 124 125 1.5 129 1.5
 125 126 1.5 162 1.5
 126 127 2.0 130 1.0
 127 128 1.5 166 1.0
 128 129 2.0 167 1.0
 129 168 1.0
 130 131 1.5 161 1.5
 131 132 1.5 169 1.0
 132 133 1.5 170 1.0
 133 134 1.5 160 1.5
 134 135 3.0
 135 136 1.5
 136 137 1.5 159 1.5
 137 138 1.5 171 1.0
 138 139 1.5 172 1.0
 139 140 1.5 173 1.0
 140 141 1.5 159 1.5
 141 142 3.0
 142 143 1.5
 143 144 1.5 158 1.5
 144 145 1.5 174 1.0
 145 146 1.5 175 1.0
 146 147 1.0 157 1.5
 147 148 1.5 156 2.0
 148 149 1.5 153 1.5
 149 150 1.5 154 1.5
 150 151 2.0 176 1.0
 151 152 1.5 177 1.0
 152 153 2.0
 153 178 1.0
 154 155 2.0 179 1.0
 155 156 1.5 180 1.0
 156 181 1.0
 157 158 1.5 182 1.0
 158 183 1.0
 159 184 1.0
 160 161 1.5 185 1.0
 161 186 1.0
 162 163 2.0 187 1.0
 163 164 1.5
 164 188 1.0
 165
 166
 167
 168
 169
 170
 171
 172
 173
 174
 175
 176
 177
 178
 179
 180
 181
 182
 183
 184
 185
 186
 187
 188

