      43
SCF Done               2.29204042
Zn           -0.218600000         0.218600000        -0.218600000
C             0.975308686         4.904613913        -0.822812336
C             1.897178489         3.853337230        -0.814891391
C             1.440914738         2.540171343        -0.629089133
H             2.950909769         4.064112381        -0.952934572
N             0.101633841         2.321141989        -0.459528239
C             2.347026330         1.459739510        -0.620289699
C            -0.811744441         3.326957855        -0.464077293
C            -0.386255925         4.643696470        -0.646919812
H            -1.861960783         3.108271125        -0.329380035
H            -1.103697063         5.453943070        -0.653223267
H             1.316456630         5.921754707        -0.965880425
N             1.908974787         0.189769950        -0.444098197
H             3.406745257         1.639681911        -0.756865515
Br            3.061381309        -1.308917927        -0.431183529
C            -0.761271583        -1.105152115        -4.872428392
C            -0.746234391        -1.998123946        -3.796554607
C            -0.580884744        -1.503486062        -2.494524014
H            -0.862752502        -3.059517647        -3.980110077
N            -0.437928369        -0.156387925        -2.310638162
C            -0.564149112        -2.380807526        -1.390530529
C            -0.449498614         0.729666884        -3.340540607
C            -0.612517588         0.265901746        -4.646865764
H            -0.335147033         1.787561917        -3.149016081
H            -0.624115715         0.961135540        -5.476192692
H            -0.888587529        -1.476091147        -5.881192575
N            -0.405470210        -1.913222647        -0.128413178
H            -0.678231238        -3.447350792        -1.544271925
H            -0.389724849        -2.540922624         0.705225402
C            -4.890088109         0.710226723         1.061743984
C            -3.820121415         0.734645443         1.961628623
C            -2.512159024         0.579518543         1.479326248
H            -4.012719568         0.873713014         3.018698206
N            -2.316904467         0.407319777         0.137306004
C            -1.413724064         0.603558609         2.363483502
C            -3.340838388         0.380737591        -0.755359037
C            -4.652829242         0.532708623        -0.303918731
H            -3.140214332         0.245185673        -1.809067533
H            -5.477517018         0.514051993        -1.004509143
H            -5.903317882         0.829485172         1.423111344
N            -0.145845794         0.457885236         1.907410431
H            -1.576410683         0.741081348         3.425949101
H             0.684090256         0.474050183         2.540020819
