%chk=cis_l1_lc_FINAL.chk
%nprocshared=48
%mem=120GB
# SP PBE1PBE/def2svp empiricaldispersion=GD3BJ scrf=(solvent=dmso)

cis_l1_lc

4 1
 Pd                -7.17650000   -1.81160000   -0.30310000
 Pd                 7.17650000   -1.81130000    0.30340000
 C                 -5.03250000   -2.00580000    1.65050000
 N                 -6.05840000   -2.70670000    1.14290000
 C                 -6.23150000   -3.98050000    1.52180000
 C                 -5.35940000   -4.61100000    2.39620000
 C                 -4.24960000   -3.91560000    2.89660000
 C                 -3.23330000   -4.56110000    3.74780000
 C                 -3.59600000   -5.51420000    4.72390000
 C                 -2.64840000   -6.13810000    5.53020000
 C                 -1.31990000   -5.79420000    5.31800000
 O                 -0.24620000   -6.30510000    5.98080000
 C                  0.86060000   -5.72510000    5.44260000
 C                  2.17550000   -5.98140000    5.80780000
 C                  3.16670000   -5.30720000    5.10160000
 C                  2.86150000   -4.39230000    4.06940000
 C                  3.93120000   -3.73130000    3.29910000
 C                  3.74860000   -2.45550000    2.74310000
 C                  4.73060000   -1.90300000    1.94070000
 N                  5.87710000   -2.54570000    1.67580000
 C                  6.09730000   -3.74570000    2.23380000
 C                  5.15860000   -4.36160000    3.04440000
 C                  1.52430000   -4.14000000    3.73790000
 C                  0.52020000   -4.81610000    4.42450000
 C                 -0.92370000   -4.85870000    4.34520000
 C                 -1.88580000   -4.22960000    3.56110000
 C                 -4.11760000   -2.57090000    2.51900000
 H                 -4.94250000   -0.96140000    1.34360000
 H                 -7.08190000   -4.51300000    1.09130000
 H                 -5.52810000   -5.65970000    2.64410000
 H                 -4.65120000   -5.75340000    4.87120000
 H                 -2.93380000   -6.86370000    6.29260000
 H                  2.41830000   -6.68180000    6.60760000
 H                  4.20990000   -5.48280000    5.37150000
 H                  2.84130000   -1.88080000    2.93030000
 H                  4.59720000   -0.91910000    1.48650000
 H                  7.04830000   -4.22900000    1.99840000
 H                  5.37720000   -5.35520000    3.43640000
 H                  1.26820000   -3.45620000    2.92690000
 H                 -1.58840000   -3.51750000    2.78890000
 H                 -3.30530000   -1.95360000    2.90370000
 C                 -6.09700000   -3.74650000   -2.23280000
 N                 -5.87680000   -2.54640000   -1.67500000
 C                 -4.73040000   -1.90360000   -1.94010000
 C                 -3.74830000   -2.45630000   -2.74250000
 C                 -3.93100000   -3.73220000   -3.29820000
 C                 -2.86130000   -4.39330000   -4.06840000
 C                 -3.16640000   -5.30850000   -5.10040000
 C                 -2.17520000   -5.98280000   -5.80650000
 C                 -0.86020000   -5.72630000   -5.44140000
 O                  0.24650000   -6.30640000   -5.97950000
 C                  1.32020000   -5.79530000   -5.31680000
 C                  2.64870000   -6.13920000   -5.52890000
 C                  3.59630000   -5.51510000   -4.72270000
 C                  3.23350000   -4.56180000   -3.74690000
 C                  4.24970000   -3.91610000   -2.89580000
 C                  5.35950000   -4.61130000   -2.39500000
 C                  6.23140000   -3.98060000   -1.52060000
 N                  6.05830000   -2.70670000   -1.14210000
 C                  5.03250000   -2.00590000   -1.65010000
 C                  4.11770000   -2.57120000   -2.51860000
 C                  1.88600000   -4.23030000   -3.56020000
 C                  0.92390000   -4.85960000   -4.34420000
 C                 -0.52000000   -4.81710000   -4.42350000
 C                 -1.52400000   -4.14090000   -3.73700000
 C                 -5.15830000   -4.36250000   -3.04330000
 H                 -7.04790000   -4.22980000   -1.99730000
 H                 -4.59690000   -0.91970000   -1.48610000
 H                 -2.84100000   -1.88160000   -2.92980000
 H                 -4.20960000   -5.48410000   -5.37020000
 H                 -2.41800000   -6.68330000   -6.60620000
 H                  2.93420000   -6.86500000   -6.29120000
 H                  4.65150000   -5.75430000   -4.87000000
 H                  5.52820000   -5.66010000   -2.64250000
 H                  7.08180000   -4.51290000   -1.08980000
 H                  4.94250000   -0.96130000   -1.34360000
 H                  3.30550000   -1.95400000   -2.90360000
 H                  1.58860000   -3.51800000   -2.78830000
 H                 -1.26790000   -3.45690000   -2.92620000
 H                 -5.37680000   -5.35620000   -3.43510000
 C                 10.49770000   -1.31070000   -2.30850000
 C                 10.34950000   -0.00010000   -2.82880000
 C                  9.17810000    0.73030000   -2.46540000
 C                  8.95790000    2.04930000   -2.97490000
 C                  9.94190000    2.61160000   -3.76700000
 C                 11.11140000    1.89690000   -4.10830000
 C                 11.31190000    0.60860000   -3.66790000
 C                  7.70870000    2.78460000   -2.68120000
 C                  7.74780000    4.09500000   -2.18280000
 C                  6.57620000    4.79730000   -1.93080000
 C                  5.32340000    4.20600000   -2.17530000
 C                  4.11280000    4.92320000   -1.96260000
 C                  3.05830000    5.52100000   -1.83700000
 C                  1.82400000    6.22620000   -1.74540000
 C                  1.80910000    7.63300000   -1.70150000
 C                  0.59890000    8.31530000   -1.65300000
 C                 -0.60570000    7.62020000   -1.64120000
 C                 -0.61100000    6.21370000   -1.67980000
 C                 -1.84900000    5.50670000   -1.70310000
 C                 -2.92550000    4.93880000   -1.77240000
 C                 -4.19810000    4.32410000   -1.95330000
 C                 -4.30930000    3.07140000   -2.58500000
 C                 -5.55730000    2.53540000   -2.87480000
 C                 -6.73470000    3.22610000   -2.54240000
 C                 -8.05980000    2.73370000   -2.98250000
 C                 -8.49960000    1.39150000   -2.74930000
 C                 -9.74020000    0.93380000   -3.29040000
 C                -10.11470000   -0.41040000   -3.04230000
 C                 -9.32570000   -1.21120000   -2.26130000
 N                 -8.18160000   -0.74030000   -1.69550000
 C                 -7.77930000    0.49570000   -1.93290000
 C                -10.55100000    1.82900000   -4.02640000
 C                -10.14150000    3.13130000   -4.19550000
 C                 -8.90480000    3.57790000   -3.68120000
 C                 -6.62080000    4.45190000   -1.86830000
 C                 -5.37650000    4.99350000   -1.57440000
 C                  0.60970000    5.52450000   -1.73110000
 C                  5.28220000    2.89090000   -2.67440000
 C                  6.45650000    2.19660000   -2.92530000
 C                  8.29160000    0.12530000   -1.55140000
 N                  8.47340000   -1.09140000   -1.07450000
 C                  9.55560000   -1.82380000   -1.45770000
 H                 11.36830000   -1.91160000   -2.57640000
 H                  9.79580000    3.61760000   -4.16590000
 H                 11.85570000    2.37490000   -4.74880000
 H                 12.20670000    0.05040000   -3.94980000
 H                  8.71260000    4.56400000   -1.97730000
 H                  6.62300000    5.81540000   -1.54040000
 H                  2.75370000    8.17950000   -1.71090000
 H                  0.59350000    9.40670000   -1.61740000
 H                 -1.55430000    8.15760000   -1.59900000
 H                 -3.40510000    2.53830000   -2.88420000
 H                 -5.61500000    1.58820000   -3.41640000
 H                -11.04150000   -0.80690000   -3.45970000
 H                 -9.58500000   -2.24770000   -2.04240000
 H                 -6.86490000    0.82640000   -1.43660000
 H                -11.49660000    1.47680000   -4.44300000
 H                -10.76710000    3.83180000   -4.75280000
 H                 -8.59010000    4.60590000   -3.87290000
 H                 -7.52450000    4.99100000   -1.57520000
 H                 -5.30510000    5.95420000   -1.06160000
 H                  0.61490000    4.43420000   -1.76310000
 H                  4.31710000    2.42530000   -2.88200000
 H                  6.40020000    1.18850000   -3.34300000
 H                  7.41990000    0.67310000   -1.19050000
 H                  9.63740000   -2.82610000   -1.03510000
 C                 10.11560000   -0.40960000    3.04150000
 C                  9.74110000    0.93470000    3.28960000
 C                  8.50030000    1.39220000    2.74880000
 C                  8.06060000    2.73440000    2.98190000
 C                  8.90570000    3.57880000    3.68020000
 C                 10.14250000    3.13230000    4.19420000
 C                 10.55200000    1.83000000    4.02520000
 C                  6.73530000    3.22670000    2.54210000
 C                  5.55810000    2.53590000    2.87500000
 C                  4.31000000    3.07180000    2.58530000
 C                  4.19850000    4.32420000    1.95330000
 C                  2.92570000    4.93870000    1.77250000
 C                  1.84910000    5.50640000    1.70330000
 C                  0.61110000    6.21330000    1.68020000
 C                  0.60570000    7.61970000    1.64150000
 C                 -0.59900000    8.31480000    1.65340000
 C                 -1.80910000    7.63240000    1.70190000
 C                 -1.82390000    6.22570000    1.74580000
 C                 -3.05830000    5.52040000    1.83740000
 C                 -4.11280000    4.92270000    1.96280000
 C                 -5.32370000    4.20580000    2.17530000
 C                 -6.57630000    4.79710000    1.92970000
 C                 -7.74810000    4.09510000    2.18120000
 C                 -7.70950000    2.78500000    2.68040000
 C                 -8.95900000    2.05000000    2.97350000
 C                 -9.17920000    0.73100000    2.46400000
 C                -10.35120000    0.00100000    2.82650000
 C                -10.49950000   -1.30950000    2.30610000
 C                 -9.55690000   -1.82300000    1.45610000
 N                 -8.47400000   -1.09130000    1.07410000
 C                 -8.29210000    0.12540000    1.55100000
 C                -11.31420000    0.61020000    3.66470000
 C                -11.11350000    1.89850000    4.10510000
 C                 -9.94350000    2.61270000    3.76470000
 C                 -6.45750000    2.19700000    2.92580000
 C                 -5.28300000    2.89100000    2.67540000
 C                 -0.60960000    5.52400000    1.73150000
 C                  5.37670000    4.99360000    1.57390000
 C                  6.62110000    4.45230000    1.86760000
 C                  7.77990000    0.49630000    1.93270000
 N                  8.18210000   -0.73970000    1.69530000
 C                  9.32640000   -1.21060000    2.26090000
 H                 11.04250000   -0.80600000    3.45870000
 H                  8.59100000    4.60680000    3.87180000
 H                 10.76830000    3.83290000    4.75120000
 H                 11.49780000    1.47790000    4.44160000
 H                  5.61600000    1.58890000    3.41690000
 H                  3.40580000    2.53860000    2.88500000
 H                  1.55420000    8.15720000    1.59930000
 H                 -0.59360000    9.40620000    1.61780000
 H                 -2.75380000    8.17890000    1.71130000
 H                 -6.62260000    5.81500000    1.53860000
 H                 -8.71270000    4.56410000    1.97480000
 H                -11.37060000   -1.91000000    2.57320000
 H                 -9.63890000   -2.82530000    1.03350000
 H                 -7.41970000    0.67280000    1.19090000
 H                -12.20940000    0.05240000    3.94580000
 H                -11.85820000    2.37680000    4.74490000
 H                 -9.79740000    3.61880000    4.16350000
 H                 -6.40170000    1.18920000    3.34420000
 H                 -4.31800000    2.42550000    2.88380000
 H                 -0.61480000    4.43370000    1.76350000
 H                  5.30500000    5.95410000    1.06080000
 H                  7.52460000    4.99130000    1.57410000
 H                  6.86530000    0.82690000    1.43670000
 H                  9.58560000   -2.24700000    2.04200000

 1 4 1.0 43 1.0 110 1.0 176 1.0
 2 20 1.0 59 1.0 121 1.0 187 1.0
 3 4 1.5 27 2.0 28 1.0
 4 5 1.5
 5 6 1.5 29 1.0
 6 7 1.5 30 1.0
 7 8 1.0 27 1.5
 8 9 1.5 26 1.5
 9 10 1.5 31 1.0
 10 11 1.5 32 1.0
 11 12 1.0 25 1.5
 12 13 1.0
 13 14 1.5 24 1.5
 14 15 1.5 33 1.0
 15 16 1.5 34 1.0
 16 17 1.0 23 1.5
 17 18 1.5 22 1.5
 18 19 2.0 35 1.0
 19 20 1.5 36 1.0
 20 21 1.5
 21 22 2.0 37 1.0
 22 38 1.0
 23 24 1.5 39 1.0
 24 25 1.5
 25 26 1.5
 26 40 1.0
 27 41 1.0
 28
 29
 30
 31
 32
 33
 34
 35
 36
 37
 38
 39
 40
 41
 42 43 1.5 66 2.0 67 1.0
 43 44 1.5
 44 45 2.0 68 1.0
 45 46 1.5 69 1.0
 46 47 1.0 66 1.5
 47 48 1.5 65 1.5
 48 49 1.5 70 1.0
 49 50 1.5 71 1.0
 50 51 1.0 64 1.5
 51 52 1.0
 52 53 1.5 63 1.5
 53 54 1.5 72 1.0
 54 55 1.5 73 1.0
 55 56 1.0 62 1.5
 56 57 1.5 61 1.5
 57 58 1.5 74 1.0
 58 59 1.5 75 1.0
 59 60 1.5
 60 61 2.0 76 1.0
 61 77 1.0
 62 63 1.5 78 1.0
 63 64 1.5
 64 65 1.5
 65 79 1.0
 66 80 1.0
 67
 68
 69
 70
 71
 72
 73
 74
 75
 76
 77
 78
 79
 80
 81 82 1.5 122 2.0 123 1.0
 82 83 1.5 87 1.5
 83 84 1.5 120 1.5
 84 85 2.0 88 1.0
 85 86 1.5 124 1.0
 86 87 2.0 125 1.0
 87 126 1.0
 88 89 1.5 119 1.5
 89 90 1.5 127 1.0
 90 91 1.5 128 1.0
 91 92 1.5 118 1.5
 92 93 3.0
 93 94 1.5
 94 95 1.5 117 1.5
 95 96 1.5 129 1.0
 96 97 1.5 130 1.0
 97 98 1.5 131 1.0
 98 99 1.5 117 1.5
 99 100 3.0
 100 101 1.5
 101 102 1.5 116 1.5
 102 103 1.5 132 1.0
 103 104 1.5 133 1.0
 104 105 1.0 115 1.5
 105 106 1.5 114 2.0
 106 107 1.5 111 1.5
 107 108 1.5 112 1.5
 108 109 2.0 134 1.0
 109 110 1.5 135 1.0
 110 111 2.0
 111 136 1.0
 112 113 2.0 137 1.0
 113 114 1.5 138 1.0
 114 139 1.0
 115 116 1.5 140 1.0
 116 141 1.0
 117 142 1.0
 118 119 1.5 143 1.0
 119 144 1.0
 120 121 2.0 145 1.0
 121 122 1.5
 122 146 1.0
 123
 124
 125
 126
 127
 128
 129
 130
 131
 132
 133
 134
 135
 136
 137
 138
 139
 140
 141
 142
 143
 144
 145
 146
 147 148 1.5 188 2.0 189 1.0
 148 149 1.5 153 1.5
 149 150 1.5 186 1.5
 150 151 2.0 154 1.0
 151 152 1.5 190 1.0
 152 153 2.0 191 1.0
 153 192 1.0
 154 155 1.5 185 1.5
 155 156 1.5 193 1.0
 156 157 1.5 194 1.0
 157 158 1.5 184 1.5
 158 159 3.0
 159 160 1.5
 160 161 1.5 183 1.5
 161 162 1.5 195 1.0
 162 163 1.5 196 1.0
 163 164 1.5 197 1.0
 164 165 1.5 183 1.5
 165 166 3.0
 166 167 1.5
 167 168 1.5 182 1.5
 168 169 1.5 198 1.0
 169 170 1.5 199 1.0
 170 171 1.0 181 1.5
 171 172 1.5 180 2.0
 172 173 1.5 177 1.5
 173 174 1.5 178 1.5
 174 175 2.0 200 1.0
 175 176 1.5 201 1.0
 176 177 2.0
 177 202 1.0
 178 179 2.0 203 1.0
 179 180 1.5 204 1.0
 180 205 1.0
 181 182 1.5 206 1.0
 182 207 1.0
 183 208 1.0
 184 185 1.5 209 1.0
 185 210 1.0
 186 187 2.0 211 1.0
 187 188 1.5
 188 212 1.0
 189
 190
 191
 192
 193
 194
 195
 196
 197
 198
 199
 200
 201
 202
 203
 204
 205
 206
 207
 208
 209
 210
 211
 212

