%chk=m2_lc_FINAL.chk
%nprocshared=48
%mem=120GB
# SP PBE1PBE/def2svp empiricaldispersion=GD3BJ scrf=(solvent=dmso)

m2_lc

4 1
 Pd                10.60960000    0.13600000    0.22270000
 Pd               -10.60190000    0.12500000    0.23790000
 C                -11.32780000   -2.29480000    3.64660000
 C                -10.24430000   -3.20490000    3.69520000
 C                 -9.19800000   -3.04950000    2.73350000
 C                 -8.07890000   -3.93980000    2.73840000
 C                 -8.07400000   -4.97410000    3.65450000
 C                 -9.11430000   -5.13300000    4.59740000
 C                -10.17530000   -4.25890000    4.63530000
 C                 -6.93460000   -3.77390000    1.81130000
 C                 -6.13710000   -2.61980000    1.85080000
 C                 -4.99690000   -2.52020000    1.06310000
 C                 -4.63020000   -3.56640000    0.19770000
 C                 -3.44730000   -3.46610000   -0.59370000
 C                 -2.43310000   -3.36860000   -1.26110000
 C                 -1.21450000   -3.25220000   -1.99710000
 C                 -1.20820000   -2.95280000   -3.37050000
 C                  0.00270000   -2.81660000   -4.04550000
 C                  1.21470000   -2.95260000   -3.37260000
 C                  1.22340000   -3.25220000   -1.99920000
 C                  2.44380000   -3.37020000   -1.26660000
 C                  3.45980000   -3.46950000   -0.60240000
 C                  4.64620000   -3.57350000    0.18320000
 C                  5.46740000   -4.71120000    0.10290000
 C                  6.60230000   -4.81660000    0.89790000
 C                  6.96040000   -3.78860000    1.78170000
 C                  8.11100000   -3.95960000    2.69990000
 C                  9.22650000   -3.06490000    2.69720000
 C                 10.27940000   -3.22630000    3.65060000
 C                 11.35890000   -2.31130000    3.60470000
 C                 11.39570000   -1.33790000    2.64300000
 N                 10.41340000   -1.23140000    1.70420000
 C                  9.37240000   -2.04820000    1.73270000
 C                 10.22060000   -4.29030000    4.58000000
 C                  9.16290000   -5.16850000    4.53940000
 C                  8.11600000   -5.00370000    3.60480000
 C                  6.15740000   -2.63890000    1.83920000
 C                  5.01230000   -2.53580000    1.05900000
 C                  0.00510000   -3.41820000   -1.32720000
 C                 -5.44620000   -4.70910000    0.13520000
 C                 -6.57630000   -4.81060000    0.93760000
 C                 -9.35380000   -2.04300000    1.75990000
 N                -10.39780000   -1.23000000    1.73000000
 C                -11.37430000   -1.33130000    2.67540000
 H                -12.13710000   -2.36510000    4.37460000
 H                 -7.23110000   -5.66830000    3.66790000
 H                 -9.06080000   -5.95660000    5.31230000
 H                -10.97270000   -4.37100000    5.37220000
 H                 -6.38050000   -1.80940000    2.54350000
 H                 -4.36110000   -1.63700000    1.14040000
 H                 -2.15450000   -2.81880000   -3.89720000
 H                  0.00190000   -2.58230000   -5.11200000
 H                  2.16000000   -2.81900000   -3.90100000
 H                  5.20210000   -5.51930000   -0.58070000
 H                  7.22330000   -5.71310000    0.83570000
 H                 12.17310000   -2.38580000    4.32690000
 H                 12.21620000   -0.62210000    2.57860000
 H                  8.62030000   -1.92870000    0.94950000
 H                 11.02300000   -4.40690000    5.31070000
 H                  9.11720000   -5.99980000    5.24570000
 H                  7.27560000   -5.70100000    3.61660000
 H                  6.40100000   -1.83530000    2.53970000
 H                  4.37270000   -1.65670000    1.14990000
 H                  0.00610000   -3.66290000   -0.26490000
 H                 -5.18070000   -5.52380000   -0.54040000
 H                 -7.19330000   -5.71050000    0.89000000
 H                 -8.60690000   -1.92830000    0.97120000
 H                -12.19790000   -0.61930000    2.60950000
 C                -11.50760000    3.59370000    2.53570000
 C                -10.34310000    3.82310000    3.30910000
 C                 -9.25080000    2.91600000    3.15180000
 C                 -8.04570000    3.09870000    3.89850000
 C                 -7.99230000    4.14070000    4.80380000
 C                 -9.07700000    5.03200000    4.96640000
 C                -10.22930000    4.89200000    4.22790000
 C                 -6.88470000    2.19830000    3.71390000
 C                 -6.25380000    2.07680000    2.46560000
 C                 -5.13570000    1.26660000    2.31150000
 C                 -4.62100000    0.54980000    3.40710000
 C                 -3.44790000   -0.24950000    3.26410000
 C                 -2.43810000   -0.91870000    3.14050000
 C                 -1.22200000   -1.64770000    2.97720000
 C                 -1.22170000   -2.99420000    2.57340000
 C                 -0.01380000   -3.66020000    2.37890000
 C                  1.19990000   -3.00300000    2.56680000
 C                  1.21210000   -1.65670000    2.97090000
 C                  2.43360000   -0.93570000    3.13010000
 C                  3.44600000   -0.27020000    3.25250000
 C                  4.62110000    0.52560000    3.39890000
 C                  5.25980000    0.62970000    4.64670000
 C                  6.37230000    1.44700000    4.80070000
 C                  6.88530000    2.17200000    3.71670000
 C                  8.04540000    3.07200000    3.90850000
 C                  9.25070000    2.89850000    3.15980000
 C                 10.34170000    3.80580000    3.32590000
 C                 11.50720000    3.58500000    2.55160000
 C                 11.57150000    2.52130000    1.69190000
 N                 10.53620000    1.64320000    1.57210000
 C                  9.43050000    1.81700000    2.27620000
 C                 10.22620000    4.86560000    4.25480000
 C                  9.07360000    4.99680000    4.99470000
 C                  7.99060000    4.10510000    4.82390000
 C                  6.25690000    2.05510000    2.46650000
 C                  5.13860000    1.24610000    2.30710000
 C                 -0.00200000   -0.99030000    3.18290000
 C                 -5.26220000    0.65880000    4.65320000
 C                 -6.37490000    1.47690000    4.80160000
 C                 -9.42820000    1.82640000    2.27780000
 N                -10.53280000    1.64450000    1.57400000
 C                -11.56960000    2.52250000    1.68510000
 H                -12.36210000    4.26710000    2.61640000
 H                 -7.08200000    4.29380000    5.38730000
 H                 -8.98680000    5.85080000    5.68320000
 H                -11.06160000    5.58850000    4.34450000
 H                 -6.61440000    2.65810000    1.61230000
 H                 -4.63010000    1.21350000    1.34560000
 H                 -2.17000000   -3.50850000    2.40800000
 H                 -0.01870000   -4.70870000    2.07260000
 H                  2.14370000   -3.52390000    2.39600000
 H                  4.86980000    0.07110000    5.49920000
 H                  6.85740000    1.52210000    5.77620000
 H                 12.36090000    4.25850000    2.63930000
 H                 12.45360000    2.32830000    1.07960000
 H                  8.64220000    1.07070000    2.15940000
 H                 11.05740000    5.56220000    4.37830000
 H                  8.98230000    5.80850000    5.71930000
 H                  7.08040000    4.25050000    5.40960000
 H                  6.61920000    2.63960000    1.61620000
 H                  4.63460000    1.19750000    1.34020000
 H                  0.00260000    0.05890000    3.48050000
 H                 -4.87460000    0.10280000    5.50840000
 H                 -6.86310000    1.55460000    5.77540000
 H                 -8.63820000    1.08070000    2.16790000
 H                -12.45020000    2.32500000    1.07200000
 C                -12.14970000    2.83790000   -2.64370000
 C                -11.11910000    3.80010000   -2.79140000
 C                 -9.86180000    3.52540000   -2.17330000
 C                 -8.76770000    4.43800000   -2.30840000
 C                 -8.99300000    5.62650000   -2.97500000
 C                -10.24700000    5.91250000   -3.56170000
 C                -11.28740000    5.01330000   -3.49860000
 C                 -7.43010000    4.08160000   -1.78820000
 C                 -6.83480000    2.87460000   -2.19090000
 C                 -5.57390000    2.52180000   -1.73970000
 C                 -4.85980000    3.36810000   -0.87060000
 C                 -3.55950000    2.95070000   -0.46350000
 C                 -2.46800000    2.46120000   -0.23050000
 C                 -1.22240000    1.78990000   -0.06340000
 C                 -1.21310000    0.38640000    0.03090000
 C                 -0.00750000   -0.29970000    0.09290000
 C                  1.19840000    0.38650000    0.03640000
 C                  1.20810000    1.78990000   -0.05770000
 C                  2.45410000    2.46210000   -0.21870000
 C                  3.54550000    2.95410000   -0.44630000
 C                  4.84630000    3.37500000   -0.84850000
 C                  5.43670000    4.58060000   -0.43220000
 C                  6.70440000    4.93500000   -0.88570000
 C                  7.41640000    4.09940000   -1.75810000
 C                  8.75220000    4.46510000   -2.27650000
 C                  9.85050000    3.55570000   -2.15390000
 C                 11.10650000    3.84490000   -2.76830000
 C                 12.14370000    2.88870000   -2.62900000
 C                 11.95100000    1.76600000   -1.86740000
 N                 10.77510000    1.55160000   -1.21310000
 C                  9.76800000    2.39540000   -1.36210000
 C                 11.26840000    5.06700000   -3.46160000
 C                 10.22340000    5.96160000   -3.51360000
 C                  8.97170000    5.66280000   -2.92870000
 C                  6.82260000    2.89540000   -2.17200000
 C                  5.56180000    2.53730000   -1.72480000
 C                 -0.00710000    2.48850000   -0.08770000
 C                 -5.45120000    4.57730000   -0.46620000
 C                 -6.71900000    4.92630000   -0.92370000
 C                 -9.77260000    2.37540000   -1.36710000
 N                -10.77360000    1.52590000   -1.21120000
 C                -11.94850000    1.72400000   -1.87180000
 H                -13.11480000    2.98760000   -3.13000000
 H                 -8.17460000    6.34100000   -3.08610000
 H                -10.37840000    6.85690000   -4.09380000
 H                -12.24520000    5.22660000   -3.97680000
 H                 -7.35480000    2.22190000   -2.89700000
 H                 -5.10950000    1.59700000   -2.07870000
 H                 -2.15710000   -0.15990000    0.03820000
 H                 -0.00770000   -1.38560000    0.17040000
 H                  2.14250000   -0.15970000    0.04830000
 H                  4.89780000    5.23980000    0.25050000
 H                  7.15470000    5.87170000   -0.54920000
 H                 13.10810000    3.05140000   -3.11220000
 H                 12.73270000    1.01700000   -1.73200000
 H                  8.85590000    2.18560000   -0.80010000
 H                 12.22510000    5.29080000   -3.93710000
 H                 10.34960000    6.91280000   -4.03500000
 H                  8.15020000    6.37540000   -3.02850000
 H                  7.34300000    2.24970000   -2.88440000
 H                  5.09830000    1.61520000   -2.07230000
 H                 -0.00710000    3.57480000   -0.18140000
 H                 -4.91340000    5.24330000    0.21090000
 H                 -7.17050000    5.86530000   -0.59530000
 H                 -8.86030000    2.17890000   -0.80060000
 H                -12.72330000    0.96860000   -1.73320000
 C                -11.69020000   -3.36090000   -1.91020000
 C                -10.59330000   -3.62770000   -2.76540000
 C                 -9.47720000   -2.73460000   -2.72300000
 C                 -8.33220000   -2.97690000   -3.54760000
 C                 -8.37330000   -4.05320000   -4.41510000
 C                 -9.48600000   -4.92050000   -4.47120000
 C                -10.57440000   -4.72810000   -3.65270000
 C                 -7.11760000   -2.13410000   -3.48340000
 C                 -6.45330000   -1.90140000   -2.26880000
 C                 -5.27150000   -1.17340000   -2.23380000
 C                 -4.71180000   -0.65800000   -3.41540000
 C                 -3.48880000    0.07610000   -3.38060000
 C                 -2.45100000    0.71340000   -3.35780000
 C                 -1.22410000    1.44370000   -3.36870000
 C                 -1.21990000    2.84690000   -3.45090000
 C                 -0.01200000    3.53790000   -3.48090000
 C                  1.19890000    2.85250000   -3.44150000
 C                  1.20890000    1.44920000   -3.36040000
 C                  2.43860000    0.72360000   -3.34430000
 C                  3.47730000    0.08790000   -3.36510000
 C                  4.70020000   -0.64630000   -3.40250000
 C                  5.36130000   -0.87740000   -4.62170000
 C                  6.54250000   -1.60670000   -4.65470000
 C                  7.10470000   -2.12410000   -3.47830000
 C                  8.31800000   -2.96840000   -3.54640000
 C                  9.47010000   -2.72230000   -2.73280000
 C                 10.58530000   -3.61620000   -2.78000000
 C                 11.68990000   -3.34510000   -1.93640000
 C                 11.67790000   -2.24830000   -1.11840000
 N                 10.62770000   -1.38010000   -1.11470000
 C                  9.57900000   -1.59520000   -1.89230000
 C                 10.55800000   -4.72190000   -3.66060000
 C                  9.46240000   -4.91850000   -4.46830000
 C                  8.35090000   -4.04990000   -4.40780000
 C                  6.44920000   -1.88340000   -2.26050000
 C                  5.26790000   -1.15480000   -2.22170000
 C                 -0.00620000    0.75360000   -3.31190000
 C                 -5.38160000   -0.88120000   -4.63130000
 C                 -6.56330000   -1.60980000   -4.66060000
 C                 -9.57870000   -1.61100000   -1.87700000
 N                -10.62080000   -1.39930000   -1.08960000
 C                -11.67040000   -2.26830000   -1.08690000
 H                -12.55430000   -4.02660000   -1.90210000
 H                 -7.50870000   -4.25580000   -5.05050000
 H                 -9.46630000   -5.76460000   -5.16360000
 H                -11.42730000   -5.40880000   -3.67840000
 H                 -6.83520000   -2.33980000   -1.34310000
 H                 -4.75380000   -1.01800000   -1.28720000
 H                 -2.16820000    3.38590000   -3.48520000
 H                 -0.01390000    4.62840000   -3.53880000
 H                  2.14470000    3.39620000   -3.46760000
 H                  4.93780000   -0.48210000   -5.54650000
 H                  7.04440000   -1.77480000   -5.60990000
 H                 12.55380000   -4.01100000   -1.93270000
 H                 12.50640000   -2.02100000   -0.44590000
 H                  8.78170000   -0.84920000   -1.87040000
 H                 11.41040000   -5.40300000   -3.68990000
 H                  9.43600000   -5.76670000   -5.15540000
 H                  7.48080000   -4.25560000   -5.03460000
 H                  6.83750000   -2.31660000   -1.33510000
 H                  4.75680000   -0.99370000   -1.27230000
 H                 -0.00390000   -0.33330000   -3.23970000
 H                 -4.96460000   -0.47990000   -5.55650000
 H                 -7.07210000   -1.77190000   -5.61320000
 H                 -8.78220000   -0.86420000   -1.86020000
 H                -12.49270000   -2.04480000   -0.40550000

 1 32 1.0 98 1.0 164 1.0 230 1.0
 2 43 1.0 109 1.0 175 1.0 241 1.0
 3 4 1.5 44 2.0 45 1.0
 4 5 1.5 9 1.5
 5 6 1.5 42 1.5
 6 7 2.0 10 1.0
 7 8 1.5 46 1.0
 8 9 2.0 47 1.0
 9 48 1.0
 10 11 1.5 41 1.5
 11 12 1.5 49 1.0
 12 13 1.5 50 1.0
 13 14 1.5 40 1.5
 14 15 3.0
 15 16 1.5
 16 17 1.5 39 1.5
 17 18 1.5 51 1.0
 18 19 1.5 52 1.0
 19 20 1.5 53 1.0
 20 21 1.5 39 1.5
 21 22 3.0
 22 23 1.5
 23 24 1.5 38 1.5
 24 25 1.5 54 1.0
 25 26 1.5 55 1.0
 26 27 1.0 37 1.5
 27 28 1.5 36 2.0
 28 29 1.5 33 1.5
 29 30 1.5 34 1.5
 30 31 2.0 56 1.0
 31 32 1.5 57 1.0
 32 33 1.5
 33 58 1.0
 34 35 2.0 59 1.0
 35 36 1.5 60 1.0
 36 61 1.0
 37 38 1.5 62 1.0
 38 63 1.0
 39 64 1.0
 40 41 1.5 65 1.0
 41 66 1.0
 42 43 1.5 67 1.0
 43 44 1.5
 44 68 1.0
 45
 46
 47
 48
 49
 50
 51
 52
 53
 54
 55
 56
 57
 58
 59
 60
 61
 62
 63
 64
 65
 66
 67
 68
 69 70 1.5 110 2.0 111 1.0
 70 71 1.5 75 1.5
 71 72 1.5 108 1.5
 72 73 2.0 76 1.0
 73 74 1.5 112 1.0
 74 75 2.0 113 1.0
 75 114 1.0
 76 77 1.5 107 1.5
 77 78 1.5 115 1.0
 78 79 1.5 116 1.0
 79 80 1.5 106 1.5
 80 81 3.0
 81 82 1.5
 82 83 1.5 105 1.5
 83 84 1.5 117 1.0
 84 85 1.5 118 1.0
 85 86 1.5 119 1.0
 86 87 1.5 105 1.5
 87 88 3.0
 88 89 1.5
 89 90 1.5 104 1.5
 90 91 1.5 120 1.0
 91 92 1.5 121 1.0
 92 93 1.0 103 1.5
 93 94 1.5 102 2.0
 94 95 1.5 99 1.5
 95 96 1.5 100 1.5
 96 97 2.0 122 1.0
 97 98 1.5 123 1.0
 98 99 2.0
 99 124 1.0
 100 101 2.0 125 1.0
 101 102 1.5 126 1.0
 102 127 1.0
 103 104 1.5 128 1.0
 104 129 1.0
 105 130 1.0
 106 107 1.5 131 1.0
 107 132 1.0
 108 109 2.0 133 1.0
 109 110 1.5
 110 134 1.0
 111
 112
 113
 114
 115
 116
 117
 118
 119
 120
 121
 122
 123
 124
 125
 126
 127
 128
 129
 130
 131
 132
 133
 134
 135 136 1.5 176 2.0 177 1.0
 136 137 1.5 141 1.5
 137 138 1.5 174 1.5
 138 139 2.0 142 1.0
 139 140 1.5 178 1.0
 140 141 2.0 179 1.0
 141 180 1.0
 142 143 1.5 173 1.5
 143 144 2.0 181 1.0
 144 145 1.5 182 1.0
 145 146 1.5 172 1.5
 146 147 3.0
 147 148 1.5
 148 149 1.5 171 1.5
 149 150 1.5 183 1.0
 150 151 1.5 184 1.0
 151 152 1.5 185 1.0
 152 153 1.5 171 1.5
 153 154 3.0
 154 155 1.5
 155 156 1.5 170 1.5
 156 157 1.5 186 1.0
 157 158 1.5 187 1.0
 158 159 1.0 169 1.5
 159 160 1.5 168 2.0
 160 161 1.5 165 1.5
 161 162 1.5 166 1.5
 162 163 2.0 188 1.0
 163 164 1.5 189 1.0
 164 165 2.0
 165 190 1.0
 166 167 2.0 191 1.0
 167 168 1.5 192 1.0
 168 193 1.0
 169 170 2.0 194 1.0
 170 195 1.0
 171 196 1.0
 172 173 1.5 197 1.0
 173 198 1.0
 174 175 2.0 199 1.0
 175 176 1.5
 176 200 1.0
 177
 178
 179
 180
 181
 182
 183
 184
 185
 186
 187
 188
 189
 190
 191
 192
 193
 194
 195
 196
 197
 198
 199
 200
 201 202 1.5 242 2.0 243 1.0
 202 203 1.5 207 1.5
 203 204 1.5 240 1.5
 204 205 2.0 208 1.0
 205 206 1.5 244 1.0
 206 207 2.0 245 1.0
 207 246 1.0
 208 209 1.5 239 1.5
 209 210 1.5 247 1.0
 210 211 1.5 248 1.0
 211 212 1.5 238 1.5
 212 213 3.0
 213 214 1.5
 214 215 1.5 237 1.5
 215 216 1.5 249 1.0
 216 217 1.5 250 1.0
 217 218 1.5 251 1.0
 218 219 1.5 237 1.5
 219 220 3.0
 220 221 1.5
 221 222 1.5 236 1.5
 222 223 1.5 252 1.0
 223 224 1.5 253 1.0
 224 225 1.0 235 1.5
 225 226 1.5 234 2.0
 226 227 1.5 231 1.5
 227 228 1.5 232 1.5
 228 229 2.0 254 1.0
 229 230 1.5 255 1.0
 230 231 1.5
 231 256 1.0
 232 233 2.0 257 1.0
 233 234 1.5 258 1.0
 234 259 1.0
 235 236 1.5 260 1.0
 236 261 1.0
 237 262 1.0
 238 239 1.5 263 1.0
 239 264 1.0
 240 241 1.5 265 1.0
 241 242 1.5
 242 266 1.0
 243
 244
 245
 246
 247
 248
 249
 250
 251
 252
 253
 254
 255
 256
 257
 258
 259
 260
 261
 262
 263
 264
 265
 266

