%chk=m2_l1_FINAL.chk
%nprocshared=48
%mem=120GB
# SP PBE1PBE/def2svp empiricaldispersion=GD3BJ scrf=(solvent=dmso)

m2_l1

4 1
 Pd                -5.65990000    0.00070000   -0.00130000
 Pd                 5.65910000   -0.00020000    0.00020000
 C                 -4.28610000    0.74040000    2.41930000
 N                 -5.38550000    1.09190000    1.72810000
 C                 -5.88470000    2.32690000    1.91990000
 C                 -5.22350000    3.28630000    2.67990000
 C                 -3.98750000    2.97710000    3.27010000
 C                 -3.03350000    3.95920000    3.82060000
 C                 -3.39390000    5.15380000    4.48230000
 C                 -2.43700000    6.04530000    4.97390000
 C                 -1.09820000    5.71830000    4.77810000
 O                 -0.00020000    6.42660000    5.17810000
 C                  1.09770000    5.71790000    4.77870000
 C                  2.43650000    6.04440000    4.97520000
 C                  3.39340000    5.15260000    4.48400000
 C                  3.03290000    3.95810000    3.82210000
 C                  3.98670000    2.97570000    3.27200000
 C                  3.59110000    1.62940000    3.20940000
 C                  4.28420000    0.73930000    2.42010000
 N                  5.38440000    1.09030000    1.73000000
 C                  5.88450000    2.32470000    1.92300000
 C                  5.22340000    3.28420000    2.68300000
 C                  1.67650000    3.66980000    3.62480000
 C                  0.71900000    4.54700000    4.10490000
 C                 -0.71960000    4.54730000    4.10450000
 C                 -1.67710000    3.67030000    3.62390000
 C                 -3.59290000    1.63040000    3.20860000
 H                 -3.90790000   -0.27240000    2.29570000
 H                 -6.80060000    2.57500000    1.38100000
 H                 -5.63850000    4.29450000    2.72210000
 H                 -4.45000000    5.38220000    4.64080000
 H                 -2.73120000    6.95580000    5.49740000
 H                  2.73080000    6.95480000    5.49880000
 H                  4.44950000    5.38070000    4.64320000
 H                  2.70060000    1.27500000    3.72680000
 H                  3.90500000   -0.27300000    2.29560000
 H                  6.80100000    2.57240000    1.38480000
 H                  5.63920000    4.29210000    2.72600000
 H                  1.36480000    2.78060000    3.07590000
 H                 -1.36540000    2.78100000    3.07520000
 H                 -2.70320000    1.27560000    3.72700000
 C                 -4.28550000   -2.41920000    0.73940000
 N                 -5.38550000   -1.72860000    1.09010000
 C                 -5.88530000   -1.92070000    2.32480000
 C                 -5.22420000   -2.68020000    3.28470000
 C                 -3.98770000   -3.26980000    2.97620000
 C                 -3.03390000   -3.81970000    3.95890000
 C                 -3.39450000   -4.48090000    5.15370000
 C                 -2.43770000   -4.97220000    6.04560000
 C                 -1.09890000   -4.77640000    5.71870000
 O                 -0.00100000   -5.17620000    6.42740000
 C                  1.09710000   -4.77700000    5.71870000
 C                  2.43580000   -4.97350000    6.04550000
 C                  3.39280000   -4.48270000    5.15360000
 C                  3.03250000   -3.82100000    3.95900000
 C                  3.98650000   -3.27150000    2.97640000
 C                  3.59090000   -3.20900000    1.63010000
 C                  4.28420000   -2.41990000    0.73990000
 N                  5.38450000   -1.73000000    1.09080000
 C                  5.88460000   -1.92290000    2.32520000
 C                  5.22330000   -2.68260000    3.28490000
 C                  1.67620000   -3.62370000    3.67040000
 C                  0.71860000   -4.10360000    4.54750000
 C                 -0.72000000   -4.10330000    4.54750000
 C                 -1.67740000   -3.62300000    3.67030000
 C                 -3.59230000   -3.20810000    1.62990000
 H                 -3.90660000   -2.29550000   -0.27320000
 H                 -6.80160000   -1.38220000    2.57240000
 H                 -5.63980000   -2.72260000    4.29270000
 H                 -4.45070000   -4.63960000    5.38190000
 H                 -2.73210000   -5.49540000    6.95610000
 H                  2.72990000   -5.49690000    6.95600000
 H                  4.44890000   -4.64180000    5.38180000
 H                  2.70030000   -3.72630000    1.27580000
 H                  3.90510000   -2.29550000   -0.27250000
 H                  6.80110000   -1.38480000    2.57290000
 H                  5.63910000   -2.72550000    4.29280000
 H                  1.36470000   -3.07510000    2.78090000
 H                 -1.36570000   -3.07480000    2.78070000
 H                 -2.70200000   -3.72590000    1.27560000
 C                 -5.88510000   -2.32450000   -1.92360000
 N                 -5.38430000   -1.09040000   -1.73060000
 C                 -4.28320000   -0.74040000   -2.41990000
 C                 -3.59020000   -1.63120000   -3.20850000
 C                 -3.98680000   -2.97720000   -3.27110000
 C                 -3.03320000   -3.96040000   -3.82010000
 C                 -3.39370000   -5.15510000   -4.48150000
 C                 -2.43680000   -6.04730000   -4.97210000
 C                 -1.09800000   -5.72060000   -4.77590000
 O                  0.00000000   -6.42930000   -5.17520000
 C                  1.09790000   -5.72060000   -4.77580000
 C                  2.43670000   -6.04730000   -4.97200000
 C                  3.39360000   -5.15520000   -4.48130000
 C                  3.03310000   -3.96050000   -3.81980000
 C                  3.98670000   -2.97750000   -3.27050000
 C                  3.59040000   -1.63140000   -3.20790000
 C                  4.28330000   -0.74080000   -2.41900000
 N                  5.38410000   -1.09100000   -1.72940000
 C                  5.88480000   -2.32520000   -1.92240000
 C                  5.22380000   -3.28530000   -2.68180000
 C                  1.67670000   -3.67210000   -3.62260000
 C                  0.71920000   -4.54940000   -4.10270000
 C                 -0.71930000   -4.54930000   -4.10270000
 C                 -1.67680000   -3.67200000   -3.62290000
 C                 -5.22410000   -3.28480000   -2.68270000
 H                 -6.80210000   -2.57140000   -1.38610000
 H                 -3.90350000    0.27180000   -2.29540000
 H                 -2.69900000   -1.27760000   -3.72530000
 H                 -4.44980000   -5.38320000   -4.64060000
 H                 -2.73110000   -6.95790000   -5.49530000
 H                  2.73110000   -6.95790000   -5.49530000
 H                  4.44980000   -5.38330000   -4.64030000
 H                  2.69940000   -1.27760000   -3.72480000
 H                  3.90360000    0.27130000   -2.29440000
 H                  6.80160000   -2.57230000   -1.38460000
 H                  5.64010000   -4.29290000   -2.72480000
 H                  1.36500000   -2.78250000   -3.07430000
 H                 -1.36510000   -2.78220000   -3.07490000
 H                 -5.64050000   -4.29240000   -2.72580000
 C                 -4.28390000    2.42000000   -0.74100000
 N                 -5.38410000    1.72990000   -1.09220000
 C                 -5.88370000    1.92260000   -2.32680000
 C                 -5.22220000    2.68230000   -3.28630000
 C                 -3.98560000    3.27140000   -2.97750000
 C                 -3.03160000    3.82150000   -3.95980000
 C                 -3.39190000    4.48320000   -5.15440000
 C                 -2.43500000    4.97450000   -6.04610000
 C                 -1.09620000    4.77830000   -5.71920000
 O                  0.00180000    5.17800000   -6.42770000
 C                  1.09970000    4.77840000   -5.71900000
 C                  2.43850000    4.97460000   -6.04560000
 C                  3.39530000    4.48340000   -5.15370000
 C                  3.03480000    3.82160000   -3.95920000
 C                  3.98840000    3.27180000   -2.97650000
 C                  3.59220000    3.20940000   -1.63040000
 C                  4.28480000    2.42000000   -0.74000000
 N                  5.38510000    1.72970000   -1.09040000
 C                  5.88570000    1.92260000   -2.32460000
 C                  5.22510000    2.68250000   -3.28450000
 C                  1.67830000    3.62450000   -3.67090000
 C                  0.72090000    4.10480000   -4.54810000
 C                 -0.71770000    4.10470000   -4.54820000
 C                 -1.67520000    3.62440000   -3.67120000
 C                 -3.59040000    3.20910000   -1.63110000
 H                 -3.90510000    2.29570000    0.27150000
 H                 -6.80010000    1.38450000   -2.57470000
 H                 -5.63770000    2.72520000   -4.29440000
 H                 -4.44810000    4.64220000   -5.38270000
 H                 -2.72920000    5.49810000   -6.95650000
 H                  2.73290000    5.49820000   -6.95600000
 H                  4.45150000    4.64240000   -5.38170000
 H                  2.70160000    3.72690000   -1.27640000
 H                  3.90520000    2.29560000    0.27230000
 H                  6.80220000    1.38420000   -2.57190000
 H                  5.64130000    2.72530000   -4.29220000
 H                  1.36660000    3.07600000   -2.78150000
 H                 -1.36360000    3.07560000   -2.78190000
 H                 -2.70010000    3.72660000   -1.27640000

 1 4 1.0 43 1.0 82 1.0 121 1.0
 2 20 1.0 59 1.0 98 1.0 137 1.0
 3 4 1.5 27 2.0 28 1.0
 4 5 1.5
 5 6 1.5 29 1.0
 6 7 1.5 30 1.0
 7 8 1.0 27 1.5
 8 9 1.5 26 1.5
 9 10 1.5 31 1.0
 10 11 1.5 32 1.0
 11 12 1.0 25 1.5
 12 13 1.0
 13 14 1.5 24 1.5
 14 15 1.5 33 1.0
 15 16 1.5 34 1.0
 16 17 1.0 23 1.5
 17 18 1.5 22 1.5
 18 19 2.0 35 1.0
 19 20 1.5 36 1.0
 20 21 1.5
 21 22 1.5 37 1.0
 22 38 1.0
 23 24 2.0 39 1.0
 24 25 1.5
 25 26 2.0
 26 40 1.0
 27 41 1.0
 28
 29
 30
 31
 32
 33
 34
 35
 36
 37
 38
 39
 40
 41
 42 43 1.5 66 2.0 67 1.0
 43 44 1.5
 44 45 1.5 68 1.0
 45 46 1.5 69 1.0
 46 47 1.0 66 1.5
 47 48 1.5 65 1.5
 48 49 1.5 70 1.0
 49 50 1.5 71 1.0
 50 51 1.0 64 1.5
 51 52 1.0
 52 53 1.5 63 1.5
 53 54 1.5 72 1.0
 54 55 1.5 73 1.0
 55 56 1.0 62 1.5
 56 57 1.5 61 1.5
 57 58 2.0 74 1.0
 58 59 1.5 75 1.0
 59 60 1.5
 60 61 1.5 76 1.0
 61 77 1.0
 62 63 2.0 78 1.0
 63 64 1.5
 64 65 2.0
 65 79 1.0
 66 80 1.0
 67
 68
 69
 70
 71
 72
 73
 74
 75
 76
 77
 78
 79
 80
 81 82 1.5 105 1.5 106 1.0
 82 83 1.5
 83 84 2.0 107 1.0
 84 85 1.5 108 1.0
 85 86 1.0 105 1.5
 86 87 1.5 104 1.5
 87 88 1.5 109 1.0
 88 89 1.5 110 1.0
 89 90 1.0 103 1.5
 90 91 1.0
 91 92 1.5 102 1.5
 92 93 1.5 111 1.0
 93 94 1.5 112 1.0
 94 95 1.0 101 1.5
 95 96 1.5 100 1.5
 96 97 2.0 113 1.0
 97 98 1.5 114 1.0
 98 99 1.5
 99 100 1.5 115 1.0
 100 116 1.0
 101 102 2.0 117 1.0
 102 103 1.5
 103 104 2.0
 104 118 1.0
 105 119 1.0
 106
 107
 108
 109
 110
 111
 112
 113
 114
 115
 116
 117
 118
 119
 120 121 1.5 144 2.0 145 1.0
 121 122 1.5
 122 123 1.5 146 1.0
 123 124 1.5 147 1.0
 124 125 1.0 144 1.5
 125 126 1.5 143 1.5
 126 127 1.5 148 1.0
 127 128 1.5 149 1.0
 128 129 1.0 142 1.5
 129 130 1.0
 130 131 1.5 141 1.5
 131 132 1.5 150 1.0
 132 133 1.5 151 1.0
 133 134 1.0 140 1.5
 134 135 1.5 139 1.5
 135 136 2.0 152 1.0
 136 137 1.5 153 1.0
 137 138 1.5
 138 139 1.5 154 1.0
 139 155 1.0
 140 141 2.0 156 1.0
 141 142 1.5
 142 143 2.0
 143 157 1.0
 144 158 1.0
 145
 146
 147
 148
 149
 150
 151
 152
 153
 154
 155
 156
 157
 158

