%chk=trans_l3_la_FINAL.chk
%nprocshared=48
%mem=120GB
# SP PBE1PBE/def2svp empiricaldispersion=GD3BJ scrf=(solvent=dmso)

trans_l3_la

4 1
 Pd                 7.68320000    0.01880000   -0.00620000
 Pd                -5.82370000   -0.00630000    0.00320000
 C                  3.86890000   -1.64620000    0.89140000
 C                  5.15510000   -1.18660000    1.11990000
 N                  6.13160000   -1.32440000    0.20980000
 C                  5.87530000   -2.03780000   -0.90340000
 C                  4.62330000   -2.53870000   -1.19530000
 C                  3.55150000   -2.27690000   -0.32540000
 C                  2.18440000   -2.56160000   -0.72800000
 C                  1.74190000   -3.08390000   -1.93300000
 C                  0.34130000   -3.05970000   -2.06670000
 C                 -0.29350000   -2.53090000   -0.95820000
 S                  0.85030000   -2.07230000    0.25340000
 C                 -1.70450000   -2.24490000   -0.75520000
 C                 -2.22250000   -2.02830000    0.53190000
 C                 -3.51470000   -1.56960000    0.67910000
 N                 -4.30330000   -1.31010000   -0.37740000
 C                 -3.86660000   -1.61150000   -1.60890000
 C                 -2.58750000   -2.09250000   -1.83640000
 H                  3.10800000   -1.45760000    1.65080000
 H                  5.40300000   -0.64480000    2.03440000
 H                  6.69730000   -2.16680000   -1.61190000
 H                  4.48360000   -3.07430000   -2.13310000
 H                  2.40780000   -3.46090000   -2.70860000
 H                 -0.18960000   -3.43020000   -2.94370000
 H                 -1.61580000   -2.18990000    1.42390000
 H                 -3.92810000   -1.36320000    1.66760000
 H                 -4.54900000   -1.40820000   -2.43730000
 H                 -2.26570000   -2.26920000   -2.86260000
 C                  3.83720000    1.63760000   -0.86690000
 C                  5.12610000    1.19090000   -1.10640000
 N                  6.11010000    1.34120000   -0.20630000
 C                  5.85620000    2.05310000    0.90840000
 C                  4.60180000    2.54140000    1.21100000
 C                  3.52460000    2.26860000    0.35100000
 C                  2.15910000    2.54610000    0.76420000
 C                  1.72450000    3.05450000    1.97780000
 C                  0.32450000    3.03070000    2.12000000
 C                 -0.31750000    2.51730000    1.00870000
 S                  0.81820000    2.07130000   -0.21540000
 C                 -1.73080000    2.23820000    0.80940000
 C                 -2.26330000    2.07670000   -0.47980000
 C                 -3.55700000    1.62280000   -0.63160000
 N                 -4.33060000    1.31430000    0.42260000
 C                 -3.88140000    1.56420000    1.66110000
 C                 -2.60090000    2.03940000    1.89380000
 H                  3.07130000    1.43930000   -1.61860000
 H                  5.37090000    0.64980000   -2.02210000
 H                  6.68320000    2.19300000    1.60880000
 H                  4.46580000    3.07790000    2.14880000
 H                  2.39580000    3.42100000    2.75380000
 H                 -0.20050000    3.39130000    3.00460000
 H                 -1.66640000    2.27840000   -1.37020000
 H                 -3.98570000    1.46220000   -1.62250000
 H                 -4.55410000    1.32400000    2.48780000
 H                 -2.26630000    2.17280000    2.92250000
 C                 11.17830000   -1.72810000    1.78020000
 C                 10.26180000   -0.86060000    1.24660000
 N                  9.09540000   -1.29720000    0.68300000
 C                  8.80110000   -2.58300000    0.74600000
 C                  9.62850000   -3.54010000    1.36140000
 C                  9.20870000   -4.90090000    1.48750000
 C                  7.79580000   -5.23740000    1.19400000
 C                  7.42880000   -6.12850000    0.17860000
 C                  6.08810000   -6.34110000   -0.12450000
 C                  5.07610000   -5.67640000    0.59310000
 C                  3.70640000   -5.83770000    0.24150000
 C                  2.53840000   -5.94300000   -0.09100000
 C                  1.21190000   -6.08830000   -0.58900000
 C                  0.09000000   -5.72920000    0.17590000
 C                 -1.17770000   -5.88690000   -0.38640000
 C                 -2.54530000   -5.64220000    0.04090000
 C                 -3.15770000   -5.11660000    1.17930000
 C                 -4.55750000   -4.99950000    1.19640000
 C                 -5.24900000   -4.33810000    2.25360000
 C                 -5.92690000   -3.67800000    3.02510000
 C                 -6.75610000   -2.72790000    3.69070000
 C                 -6.19590000   -1.64630000    4.39620000
 C                 -6.97190000   -0.53140000    4.69250000
 C                 -8.31720000   -0.47050000    4.29880000
 C                 -8.92920000    0.86180000    4.03720000
 C                 -9.77090000    1.58800000    4.84640000
 C                -10.23680000    2.86450000    4.43570000
 C                 -9.86130000    3.42680000    3.23590000
 C                 -8.99220000    2.71700000    2.37020000
 C                 -8.51700000    3.20600000    1.12390000
 C                 -7.65070000    2.45710000    0.36400000
 N                 -7.25580000    1.21910000    0.76550000
 C                 -7.69920000    0.72400000    1.90530000
 C                 -8.54850000    1.42840000    2.77710000
 C                 -8.91550000   -1.62150000    3.77000000
 C                 -8.14750000   -2.74180000    3.47180000
 C                 -5.32500000   -5.44800000    0.09170000
 C                 -4.73010000   -5.96980000   -1.04710000
 C                 -3.34410000   -6.04070000   -1.04920000
 O                 -2.59050000   -6.49230000   -2.08400000
 C                 -1.29270000   -6.39840000   -1.69410000
 C                 -0.20230000   -6.75710000   -2.47380000
 C                  1.05100000   -6.59570000   -1.90280000
 C                  5.44470000   -4.81780000    1.64460000
 C                  6.78340000   -4.59960000    1.93120000
 C                 10.12620000   -5.82080000    1.95320000
 C                 11.42170000   -5.41580000    2.35380000
 C                 11.80290000   -4.09200000    2.32690000
 C                 10.90430000   -3.11890000    1.83030000
 H                 12.11550000   -1.33650000    2.17930000
 H                 10.43630000    0.21470000    1.24020000
 H                  7.86920000   -2.91050000    0.29450000
 H                  8.20300000   -6.63350000   -0.40350000
 H                  5.81310000   -7.01490000   -0.93800000
 H                  0.21750000   -5.33140000    1.18370000
 H                 -2.56880000   -4.77890000    2.03330000
 H                 -5.12690000   -1.64220000    4.61760000
 H                 -6.49810000    0.35240000    5.12650000
 H                -10.07880000    1.18760000    5.81430000
 H                -10.90540000    3.41600000    5.10050000
 H                -10.22160000    4.41590000    2.94590000
 H                 -8.82900000    4.19010000    0.76930000
 H                 -7.24260000    2.81490000   -0.58260000
 H                 -7.36010000   -0.27830000    2.16460000
 H                 -9.96800000   -1.59760000    3.47770000
 H                 -8.60490000   -3.59750000    2.97140000
 H                 -6.41130000   -5.36400000    0.13980000
 H                 -5.31770000   -6.30010000   -1.90440000
 H                 -0.33080000   -7.14710000   -3.48410000
 H                  1.94260000   -6.86110000   -2.47320000
 H                  4.67020000   -4.31150000    2.22320000
 H                  7.05500000   -3.91650000    2.73970000
 H                  9.83470000   -6.86820000    2.05690000
 H                 12.11730000   -6.17060000    2.72700000
 H                 12.78780000   -3.78420000    2.68350000
 C                 11.13640000    1.81200000   -1.82790000
 C                 10.23660000    0.93190000   -1.28630000
 N                  9.07110000    1.35280000   -0.70920000
 C                  8.75990000    2.63480000   -0.76630000
 C                  9.56840000    3.60350000   -1.38850000
 C                  9.12990000    4.95900000   -1.50740000
 C                  7.71550000    5.27680000   -1.20030000
 C                  7.34570000    6.16340000   -0.18200000
 C                  6.00490000    6.35980000    0.13160000
 C                  4.99530000    5.68340000   -0.57840000
 C                  3.62600000    5.83010000   -0.21860000
 C                  2.45800000    5.92380000    0.11750000
 C                  1.13010000    6.05810000    0.61480000
 C                  0.01110000    5.71220000   -0.16040000
 C                 -1.25910000    5.86490000    0.39760000
 C                 -2.62510000    5.63310000   -0.04160000
 C                 -3.23270000    5.12770000   -1.19160000
 C                 -4.63240000    5.01140000   -1.21690000
 C                 -5.31710000    4.35620000   -2.28240000
 C                 -5.98550000    3.69030000   -3.05710000
 C                 -6.79910000    2.72560000   -3.72110000
 C                 -6.22080000    1.65760000   -4.43260000
 C                 -6.97480000    0.52650000   -4.72470000
 C                 -8.31520000    0.43590000   -4.32070000
 C                 -8.90090000   -0.90840000   -4.06140000
 C                 -9.73360000   -1.64450000   -4.87120000
 C                -10.18100000   -2.92830000   -4.46350000
 C                 -9.79760000   -3.48730000   -3.26460000
 C                 -8.93790000   -2.76710000   -2.39820000
 C                 -8.45980000   -3.25090000   -1.15100000
 C                 -7.60620000   -2.49100000   -0.38800000
 N                 -7.22370000   -1.24880000   -0.78900000
 C                 -7.66810000   -0.75920000   -1.93100000
 C                 -8.50960000   -1.47270000   -2.80350000
 C                 -8.93430000    1.57290000   -3.78530000
 C                 -8.18860000    2.70920000   -3.49150000
 C                 -5.40480000    5.44530000   -0.10980000
 C                 -4.81490000    5.94880000    1.03970000
 C                 -3.42870000    6.01600000    1.05060000
 O                 -2.67930000    6.44810000    2.09680000
 C                 -1.37960000    6.35600000    1.71260000
 C                 -0.29220000    6.69950000    2.50330000
 C                  0.96360000    6.54490000    1.93580000
 C                  5.36610000    4.82840000   -1.63210000
 C                  6.70510000    4.62610000   -1.92900000
 C                 10.03080000    5.89150000   -1.98040000
 C                 11.32700000    5.50380000   -2.39530000
 C                 11.72530000    4.18500000   -2.37570000
 C                 10.84440000    3.19940000   -1.87180000
 H                 12.07410000    1.43320000   -2.23770000
 H                 10.42460000   -0.14120000   -1.28400000
 H                  7.82880000    2.94970000   -0.30420000
 H                  8.11820000    6.67810000    0.39360000
 H                  5.72820000    7.03070000    0.94690000
 H                  0.14270000    5.33090000   -1.17400000
 H                 -2.64020000    4.80230000   -2.04790000
 H                 -5.15380000    1.67690000   -4.66240000
 H                 -6.48560000   -0.34590000   -5.16470000
 H                -10.04940000   -1.24510000   -5.83690000
 H                -10.84260000   -3.48760000   -5.12880000
 H                -10.14510000   -4.48110000   -2.97550000
 H                 -8.76070000   -4.23880000   -0.79750000
 H                 -7.19820000   -2.84280000    0.56110000
 H                 -7.33830000    0.24600000   -2.19200000
 H                 -9.98380000    1.52590000   -3.48550000
 H                 -8.66060000    3.55420000   -2.98640000
 H                 -6.49100000    5.36340000   -0.16470000
 H                 -5.40630000    6.26720000    1.89890000
 H                 -0.42480000    7.07390000    3.51900000
 H                  1.85280000    6.80020000    2.51440000
 H                  4.59340000    4.31270000   -2.20470000
 H                  6.97860000    3.94600000   -2.73940000
 H                  9.72490000    6.93530000   -2.07890000
 H                 12.00910000    6.26830000   -2.77410000
 H                 12.71010000    3.89050000   -2.74350000

 1 5 1.0 32 1.0 59 1.0 134 1.0
 2 17 1.0 44 1.0 88 1.0 163 1.0
 3 4 2.0 8 1.5 20 1.0
 4 5 1.5 21 1.0
 5 6 1.5
 6 7 2.0 22 1.0
 7 8 1.5 23 1.0
 8 9 1.0
 9 10 2.0 13 1.0
 10 11 1.5 24 1.0
 11 12 2.0 25 1.0
 12 13 1.0 14 1.0
 13
 14 15 1.5 19 1.5
 15 16 2.0 26 1.0
 16 17 1.5 27 1.0
 17 18 1.5
 18 19 2.0 28 1.0
 19 29 1.0
 20
 21
 22
 23
 24
 25
 26
 27
 28
 29
 30 31 2.0 35 1.5 47 1.0
 31 32 1.5 48 1.0
 32 33 1.5
 33 34 2.0 49 1.0
 34 35 1.5 50 1.0
 35 36 1.0
 36 37 2.0 40 1.0
 37 38 1.5 51 1.0
 38 39 2.0 52 1.0
 39 40 1.0 41 1.0
 40
 41 42 1.5 46 1.5
 42 43 2.0 53 1.0
 43 44 1.5 54 1.0
 44 45 1.5
 45 46 2.0 55 1.0
 46 56 1.0
 47
 48
 49
 50
 51
 52
 53
 54
 55
 56
 57 58 2.0 105 1.5 106 1.0
 58 59 1.5 107 1.0
 59 60 2.0
 60 61 1.5 108 1.0
 61 62 1.5 105 1.5
 62 63 1.0 102 2.0
 63 64 1.5 101 1.5
 64 65 1.5 109 1.0
 65 66 1.5 110 1.0
 66 67 1.5 100 1.5
 67 68 3.0
 68 69 1.5
 69 70 1.5 99 1.5
 70 71 1.5 111 1.0
 71 72 1.0 97 1.5
 72 73 1.5 95 1.5
 73 74 1.5 112 1.0
 74 75 1.5 93 1.5
 75 76 3.0
 76 77 1.5
 77 78 1.5 92 1.5
 78 79 1.5 113 1.0
 79 80 1.5 114 1.0
 80 81 1.0 91 1.5
 81 82 2.0 90 1.5
 82 83 1.5 115 1.0
 83 84 2.0 116 1.0
 84 85 1.5 117 1.0
 85 86 1.5 90 1.5
 86 87 2.0 118 1.0
 87 88 1.5 119 1.0
 88 89 2.0
 89 90 1.5 120 1.0
 90
 91 92 1.5 121 1.0
 92 122 1.0
 93 94 1.5 123 1.0
 94 95 1.5 124 1.0
 95 96 1.0
 96 97 1.0
 97 98 1.5
 98 99 1.5 125 1.0
 99 126 1.0
 100 101 1.5 127 1.0
 101 128 1.0
 102 103 1.5 129 1.0
 103 104 2.0 130 1.0
 104 105 1.5 131 1.0
 105
 106
 107
 108
 109
 110
 111
 112
 113
 114
 115
 116
 117
 118
 119
 120
 121
 122
 123
 124
 125
 126
 127
 128
 129
 130
 131
 132 133 2.0 180 1.5 181 1.0
 133 134 1.5 182 1.0
 134 135 2.0
 135 136 1.5 183 1.0
 136 137 1.5 180 1.5
 137 138 1.0 177 2.0
 138 139 1.5 176 1.5
 139 140 1.5 184 1.0
 140 141 1.5 185 1.0
 141 142 1.5 175 1.5
 142 143 3.0
 143 144 1.5
 144 145 1.5 174 1.5
 145 146 1.5 186 1.0
 146 147 1.0 172 1.5
 147 148 1.5 170 1.5
 148 149 1.5 187 1.0
 149 150 1.5 168 1.5
 150 151 3.0
 151 152 1.5
 152 153 1.5 167 1.5
 153 154 1.5 188 1.0
 154 155 1.5 189 1.0
 155 156 1.0 166 1.5
 156 157 2.0 165 1.5
 157 158 1.5 190 1.0
 158 159 2.0 191 1.0
 159 160 1.5 192 1.0
 160 161 1.5 165 1.5
 161 162 2.0 193 1.0
 162 163 1.5 194 1.0
 163 164 2.0
 164 165 1.5 195 1.0
 165
 166 167 1.5 196 1.0
 167 197 1.0
 168 169 1.5 198 1.0
 169 170 1.5 199 1.0
 170 171 1.0
 171 172 1.0
 172 173 1.5
 173 174 1.5 200 1.0
 174 201 1.0
 175 176 1.5 202 1.0
 176 203 1.0
 177 178 1.5 204 1.0
 178 179 2.0 205 1.0
 179 180 1.5 206 1.0
 180
 181
 182
 183
 184
 185
 186
 187
 188
 189
 190
 191
 192
 193
 194
 195
 196
 197
 198
 199
 200
 201
 202
 203
 204
 205
 206

