%chk=trans_l1_ld_FINAL.chk
%nprocshared=48
%mem=120GB
# SP PBE1PBE/def2svp empiricaldispersion=GD3BJ scrf=(solvent=dmso)

trans_l1_ld

4 1
 Pd                -7.50650000   -0.06120000   -0.10760000
 Pd                 7.50620000   -0.06160000   -0.10750000
 C                 -5.06850000    1.57300000   -0.52120000
 N                 -6.07280000    1.31610000    0.33360000
 C                 -6.12600000    1.98530000    1.49800000
 C                 -5.17930000    2.93200000    1.84410000
 C                 -4.11070000    3.20340000    0.97700000
 C                 -3.05310000    4.15800000    1.35000000
 C                 -3.38400000    5.35320000    2.02340000
 C                 -2.41140000    6.25980000    2.42920000
 C                 -1.09170000    5.91560000    2.17320000
 O                  0.00010000    6.63430000    2.54920000
 C                  1.09180000    5.91570000    2.17300000
 C                  2.41150000    6.26000000    2.42870000
 C                  3.38420000    5.35350000    2.02290000
 C                  3.05320000    4.15820000    1.34950000
 C                  4.11090000    3.20360000    0.97660000
 C                  4.07930000    2.49850000   -0.23520000
 C                  5.06870000    1.57310000   -0.52150000
 N                  6.07290000    1.31610000    0.33340000
 C                  6.12610000    1.98540000    1.49770000
 C                  5.17940000    2.93220000    1.84370000
 C                  1.71510000    3.85190000    1.07610000
 C                  0.72440000    4.72930000    1.51160000
 C                 -0.72420000    4.72930000    1.51170000
 C                 -1.71500000    3.85170000    1.07640000
 C                 -4.07910000    2.49830000   -0.23480000
 H                 -5.06810000    1.02000000   -1.46200000
 H                 -6.95200000    1.74330000    2.16880000
 H                 -5.25970000    3.42840000    2.81180000
 H                 -4.43390000    5.58430000    2.21340000
 H                 -2.66860000    7.18940000    2.93780000
 H                  2.66880000    7.18970000    2.93740000
 H                  4.43410000    5.58470000    2.21270000
 H                  3.29630000    2.68250000   -0.97190000
 H                  5.06830000    1.02000000   -1.46220000
 H                  6.95190000    1.74330000    2.16870000
 H                  5.25980000    3.42860000    2.81140000
 H                  1.45030000    2.91870000    0.57530000
 H                 -1.45020000    2.91860000    0.57560000
 H                 -3.29600000    2.68220000   -0.97140000
 C                 -6.04330000   -2.07900000   -1.65770000
 N                 -6.03890000   -1.41350000   -0.49040000
 C                 -5.09040000   -1.69100000    0.41920000
 C                 -4.10880000   -2.64010000    0.18850000
 C                 -4.09560000   -3.34760000   -1.02150000
 C                 -3.04720000   -4.33130000   -1.34050000
 C                 -3.37920000   -5.52600000   -2.01490000
 C                 -2.41030000   -6.44900000   -2.39210000
 C                 -1.09170000   -6.11690000   -2.11410000
 O                 -0.00030000   -6.84050000   -2.48130000
 C                  1.09110000   -6.11690000   -2.11390000
 C                  2.40980000   -6.44900000   -2.39190000
 C                  3.37860000   -5.52610000   -2.01450000
 C                  3.04660000   -4.33140000   -1.34020000
 C                  4.09500000   -3.34760000   -1.02130000
 C                  5.10250000   -3.04930000   -1.94980000
 C                  6.04270000   -2.07920000   -1.65760000
 N                  6.03840000   -1.41370000   -0.49030000
 C                  5.08990000   -1.69100000    0.41930000
 C                  4.10820000   -2.64000000    0.18870000
 C                  1.71180000   -4.04010000   -1.03810000
 C                  0.72350000   -4.92880000   -1.45560000
 C                 -0.72410000   -4.92880000   -1.45560000
 C                 -1.71240000   -4.04010000   -1.03820000
 C                 -5.10310000   -3.04920000   -1.95000000
 H                 -6.82530000   -1.81830000   -2.37240000
 H                 -5.13090000   -1.13770000    1.35900000
 H                 -3.37220000   -2.84370000    0.96680000
 H                 -4.42660000   -5.73920000   -2.23700000
 H                 -2.66820000   -7.37580000   -2.90560000
 H                  2.66770000   -7.37590000   -2.90530000
 H                  4.42610000   -5.73930000   -2.23650000
 H                  5.13920000   -3.54580000   -2.92000000
 H                  6.82480000   -1.81860000   -2.37230000
 H                  5.13040000   -1.13770000    1.35910000
 H                  3.37150000   -2.84350000    0.96700000
 H                  1.44630000   -3.10520000   -0.54070000
 H                 -1.44700000   -3.10520000   -0.54080000
 H                 -5.13990000   -3.54570000   -2.92020000
 C                 10.91100000   -2.29090000   -1.50930000
 C                 10.67860000   -3.60580000   -1.03220000
 C                  9.48460000   -3.83420000   -0.28590000
 C                  9.12870000   -5.15750000    0.13420000
 C                  9.99350000   -6.18910000   -0.17390000
 C                 11.20380000   -5.95330000   -0.86580000
 C                 11.54580000   -4.69200000   -1.29690000
 C                  7.80610000   -5.40740000    0.75530000
 C                  7.40220000   -4.76660000    1.93730000
 C                  6.09770000   -4.87980000    2.39790000
 C                  5.15650000   -5.65130000    1.68970000
 C                  3.78850000   -5.64840000    2.07300000
 C                  2.60510000   -5.55550000    2.35930000
 C                  1.24610000   -5.39220000    2.67850000
 C                  0.70220000   -4.64770000    3.71760000
 C                 -0.70350000   -4.64770000    3.71750000
 C                 -1.24740000   -5.39210000    2.67840000
 C                 -2.60630000   -5.55530000    2.35890000
 C                 -3.78970000   -5.64810000    2.07260000
 C                 -5.15770000   -5.65100000    1.68920000
 C                 -6.09890000   -4.87960000    2.39750000
 C                 -7.40340000   -4.76620000    1.93690000
 C                 -7.80720000   -5.40680000    0.75480000
 C                 -9.12980000   -5.15670000    0.13350000
 C                 -9.48550000   -3.83340000   -0.28640000
 C                -10.67940000   -3.60480000   -1.03280000
 C                -10.91150000   -2.28980000   -1.50990000
 C                -10.00940000   -1.29070000   -1.25550000
 N                 -8.88960000   -1.51340000   -0.51000000
 C                 -8.64760000   -2.72800000   -0.04550000
 C                -11.54660000   -4.69090000   -1.29780000
 C                -11.20480000   -5.95230000   -0.86680000
 C                 -9.99460000   -6.18820000   -0.17480000
 C                 -6.88840000   -6.23600000    0.09480000
 C                 -5.58420000   -6.36380000    0.55420000
 S                 -0.00060000   -6.10400000    1.70310000
 C                  5.58300000   -6.36430000    0.55480000
 C                  6.88730000   -6.23660000    0.09540000
 C                  8.64680000   -2.72870000   -0.04530000
 N                  8.88900000   -1.51420000   -0.50980000
 C                 10.00900000   -1.29170000   -1.25510000
 H                 11.79990000   -2.07300000   -2.10350000
 H                  9.73750000   -7.20810000    0.12410000
 H                 11.86710000   -6.79610000   -1.07220000
 H                 12.46920000   -4.51890000   -1.85310000
 H                  8.11560000   -4.15540000    2.49520000
 H                  5.78870000   -4.34860000    3.29980000
 H                  1.32040000   -4.11800000    4.44220000
 H                 -1.32190000   -4.11790000    4.44200000
 H                 -5.78990000   -4.34850000    3.29950000
 H                 -8.11680000   -4.15510000    2.49480000
 H                -11.80030000   -2.07170000   -2.10420000
 H                -10.14830000   -0.28030000   -1.64000000
 H                 -7.73750000   -2.85940000    0.53560000
 H                -12.46990000   -4.51760000   -1.85410000
 H                -11.86820000   -6.79490000   -1.07340000
 H                 -9.73880000   -7.20730000    0.12310000
 H                 -7.19120000   -6.75200000   -0.81920000
 H                 -4.87150000   -6.98900000    0.01460000
 H                  4.87030000   -6.98950000    0.01520000
 H                  7.19010000   -6.75290000   -0.81840000
 H                  7.73650000   -2.86000000    0.53560000
 H                 10.14810000   -0.28140000   -1.63960000
 C                 11.13180000    1.99480000    0.94690000
 C                 10.92240000    3.31790000    0.48210000
 C                  9.65200000    3.62040000   -0.09210000
 C                  9.32730000    4.96120000   -0.47900000
 C                 10.29880000    5.93120000   -0.32470000
 C                 11.57820000    5.61890000    0.18890000
 C                 11.89070000    4.34270000    0.59790000
 C                  7.94460000    5.31270000   -0.88310000
 C                  7.28280000    4.70010000   -1.95920000
 C                  5.93790000    4.94880000   -2.20600000
 C                  5.21550000    5.83260000   -1.38400000
 C                  3.81800000    6.04520000   -1.53180000
 C                  2.61480000    6.25170000   -1.51200000
 C                  1.24780000    6.55260000   -1.38700000
 C                  0.70340000    7.63240000   -0.70540000
 C                 -0.70140000    7.63240000   -0.70530000
 C                 -1.24600000    6.55270000   -1.38680000
 C                 -2.61300000    6.25180000   -1.51160000
 C                 -3.81630000    6.04550000   -1.53120000
 C                 -5.21380000    5.83300000   -1.38330000
 C                 -5.93630000    4.94930000   -2.20540000
 C                 -7.28120000    4.70080000   -1.95850000
 C                 -7.94290000    5.31340000   -0.88240000
 C                 -9.32580000    4.96230000   -0.47840000
 C                 -9.65100000    3.62150000   -0.09190000
 C                -10.92150000    3.31940000    0.48230000
 C                -11.13150000    1.99620000    0.94680000
 C                -10.14520000    1.05390000    0.82440000
 N                 -8.95470000    1.34070000    0.22400000
 C                 -8.72330000    2.56920000   -0.20740000
 C                -11.88950000    4.34460000    0.59820000
 C                -11.57650000    5.62070000    0.18940000
 C                -10.29690000    5.93260000   -0.32400000
 C                 -7.23460000    6.23980000   -0.10260000
 C                 -5.89440000    6.50080000   -0.34700000
 S                  0.00080000    5.53160000   -2.03370000
 C                  5.89620000    6.50040000   -0.34780000
 C                  7.23640000    6.23920000   -0.10330000
 C                  8.72400000    2.56840000   -0.20760000
 N                  8.95490000    1.33990000    0.22410000
 C                 10.14520000    1.05270000    0.82460000
 H                 12.07620000    1.72430000    1.42200000
 H                 10.07240000    6.96270000   -0.60300000
 H                 12.32090000    6.41480000    0.27700000
 H                 12.86990000    4.11130000    1.02160000
 H                  7.82580000    4.01190000   -2.61130000
 H                  5.43310000    4.44620000   -3.03280000
 H                  1.32250000    8.38430000   -0.21660000
 H                 -1.32040000    8.38440000   -0.21630000
 H                 -5.43160000    4.44670000   -3.03220000
 H                 -7.82440000    4.01280000   -2.61070000
 H                -12.07600000    1.72600000    1.42170000
 H                -10.27260000    0.03800000    1.19770000
 H                 -7.75460000    2.75430000   -0.66510000
 H                -12.86880000    4.11340000    1.02170000
 H                -12.31900000    6.41690000    0.27760000
 H                -10.07020000    6.96410000   -0.60220000
 H                 -7.73530000    6.73110000    0.73460000
 H                 -5.34990000    7.20500000    0.28420000
 H                  5.35190000    7.20470000    0.28340000
 H                  7.73720000    6.73050000    0.73390000
 H                  7.75530000    2.75370000   -0.66540000
 H                 10.27220000    0.03690000    1.19810000

 1 4 1.0 43 1.0 109 1.0 172 1.0
 2 20 1.0 59 1.0 120 1.0 183 1.0
 3 4 1.5 27 2.0 28 1.0
 4 5 1.5
 5 6 2.0 29 1.0
 6 7 1.5 30 1.0
 7 8 1.0 27 1.5
 8 9 1.5 26 1.5
 9 10 1.5 31 1.0
 10 11 1.5 32 1.0
 11 12 1.0 25 1.5
 12 13 1.0
 13 14 1.5 24 1.5
 14 15 1.5 33 1.0
 15 16 1.5 34 1.0
 16 17 1.0 23 1.5
 17 18 1.5 22 1.5
 18 19 2.0 35 1.0
 19 20 1.5 36 1.0
 20 21 1.5
 21 22 2.0 37 1.0
 22 38 1.0
 23 24 1.5 39 1.0
 24 25 1.0
 25 26 1.5
 26 40 1.0
 27 41 1.0
 28
 29
 30
 31
 32
 33
 34
 35
 36
 37
 38
 39
 40
 41
 42 43 1.5 66 2.0 67 1.0
 43 44 1.5
 44 45 2.0 68 1.0
 45 46 1.5 69 1.0
 46 47 1.0 66 1.5
 47 48 1.5 65 1.5
 48 49 1.5 70 1.0
 49 50 1.5 71 1.0
 50 51 1.0 64 1.5
 51 52 1.0
 52 53 1.5 63 1.5
 53 54 1.5 72 1.0
 54 55 1.5 73 1.0
 55 56 1.0 62 1.5
 56 57 1.5 61 1.5
 57 58 2.0 74 1.0
 58 59 1.5 75 1.0
 59 60 1.5
 60 61 2.0 76 1.0
 61 77 1.0
 62 63 1.5 78 1.0
 63 64 1.0
 64 65 1.5
 65 79 1.0
 66 80 1.0
 67
 68
 69
 70
 71
 72
 73
 74
 75
 76
 77
 78
 79
 80
 81 82 1.5 121 2.0 122 1.0
 82 83 1.5 87 1.5
 83 84 1.5 119 1.5
 84 85 2.0 88 1.0
 85 86 1.5 123 1.0
 86 87 2.0 124 1.0
 87 125 1.0
 88 89 1.5 118 1.5
 89 90 1.5 126 1.0
 90 91 1.5 127 1.0
 91 92 1.5 117 1.5
 92 93 3.0
 93 94 1.5
 94 95 1.5 116 1.0
 95 96 1.5 128 1.0
 96 97 1.5 129 1.0
 97 98 1.5 116 1.0
 98 99 3.0
 99 100 1.5
 100 101 1.5 115 1.5
 101 102 1.5 130 1.0
 102 103 1.5 131 1.0
 103 104 1.0 114 1.5
 104 105 1.5 113 2.0
 105 106 1.5 110 1.5
 106 107 1.5 111 1.5
 107 108 2.0 132 1.0
 108 109 1.5 133 1.0
 109 110 2.0
 110 134 1.0
 111 112 2.0 135 1.0
 112 113 1.5 136 1.0
 113 137 1.0
 114 115 1.5 138 1.0
 115 139 1.0
 116
 117 118 1.5 140 1.0
 118 141 1.0
 119 120 2.0 142 1.0
 120 121 1.5
 121 143 1.0
 122
 123
 124
 125
 126
 127
 128
 129
 130
 131
 132
 133
 134
 135
 136
 137
 138
 139
 140
 141
 142
 143
 144 145 1.5 184 2.0 185 1.0
 145 146 1.5 150 1.5
 146 147 1.5 182 1.5
 147 148 2.0 151 1.0
 148 149 1.5 186 1.0
 149 150 2.0 187 1.0
 150 188 1.0
 151 152 1.5 181 1.5
 152 153 1.5 189 1.0
 153 154 1.5 190 1.0
 154 155 1.5 180 1.5
 155 156 3.0
 156 157 1.5
 157 158 1.5 179 1.0
 158 159 1.5 191 1.0
 159 160 1.5 192 1.0
 160 161 1.5 179 1.0
 161 162 3.0
 162 163 1.5
 163 164 1.5 178 1.5
 164 165 1.5 193 1.0
 165 166 1.5 194 1.0
 166 167 1.0 177 1.5
 167 168 1.5 176 2.0
 168 169 1.5 173 1.5
 169 170 1.5 174 1.5
 170 171 2.0 195 1.0
 171 172 1.5 196 1.0
 172 173 2.0
 173 197 1.0
 174 175 2.0 198 1.0
 175 176 1.5 199 1.0
 176 200 1.0
 177 178 1.5 201 1.0
 178 202 1.0
 179
 180 181 1.5 203 1.0
 181 204 1.0
 182 183 2.0 205 1.0
 183 184 1.5
 184 206 1.0
 185
 186
 187
 188
 189
 190
 191
 192
 193
 194
 195
 196
 197
 198
 199
 200
 201
 202
 203
 204
 205
 206

