%chk=cis_l3_la_FINAL_BROKEN.chk
%nprocshared=48
%mem=120GB
# SP PBE1PBE/def2svp empiricaldispersion=GD3BJ scrf=(solvent=dmso)

cis_l3_la

4 1
 Pd                -6.64410000   -3.31700000   -0.09270000
 Pd                 6.64420000   -3.31700000    0.09270000
 C                 -3.17240000   -3.01370000    2.19820000
 C                 -4.43560000   -2.77000000    1.69460000
 N                 -5.27250000   -3.76440000    1.35850000
 C                 -4.92120000   -5.03130000    1.62630000
 C                 -3.67300000   -5.35700000    2.13080000
 C                 -2.73380000   -4.33840000    2.35860000
 C                 -1.33880000   -4.64260000    2.64640000
 C                 -0.77590000   -5.79190000    3.17130000
 C                  0.63430000   -5.76600000    3.16000000
 C                  1.14920000   -4.59930000    2.62270000
 S                 -0.11840000   -3.52760000    2.14590000
 C                  2.53150000   -4.25730000    2.31930000
 C                  2.92010000   -2.93440000    2.05070000
 C                  4.19230000   -2.67690000    1.57580000
 N                  5.08820000   -3.65400000    1.37100000
 C                  4.77190000   -4.91080000    1.72080000
 C                  3.51830000   -5.24930000    2.19900000
 H                 -2.52110000   -2.16790000    2.42360000
 H                 -4.77710000   -1.74960000    1.50780000
 H                 -5.64600000   -5.80760000    1.37230000
 H                 -3.41380000   -6.40770000    2.26290000
 H                 -1.36440000   -6.62540000    3.55600000
 H                  1.25660000   -6.57870000    3.53580000
 H                  2.22720000   -2.10080000    2.17600000
 H                  4.49460000   -1.65990000    1.31800000
 H                  5.53800000   -5.67270000    1.56430000
 H                  3.30030000   -6.29640000    2.40920000
 C                 -2.92000000   -2.93440000   -2.05080000
 C                 -4.19220000   -2.67680000   -1.57590000
 N                 -5.08810000   -3.65400000   -1.37100000
 C                 -4.77190000   -4.91070000   -1.72090000
 C                 -3.51820000   -5.24930000   -2.19900000
 C                 -2.53140000   -4.25730000   -2.31930000
 C                 -1.14910000   -4.59930000   -2.62270000
 C                 -0.63420000   -5.76610000   -3.15990000
 C                  0.77600000   -5.79190000   -3.17110000
 C                  1.33890000   -4.64260000   -2.64640000
 S                  0.11850000   -3.52760000   -2.14600000
 C                  2.73400000   -4.33840000   -2.35860000
 C                  3.17260000   -3.01380000   -2.19820000
 C                  4.43580000   -2.77000000   -1.69470000
 N                  5.27260000   -3.76440000   -1.35860000
 C                  4.92130000   -5.03130000   -1.62640000
 C                  3.67310000   -5.35700000   -2.13080000
 H                 -2.22710000   -2.10080000   -2.17610000
 H                 -4.49450000   -1.65980000   -1.31820000
 H                 -5.53800000   -5.67270000   -1.56430000
 H                 -3.30020000   -6.29640000   -2.40910000
 H                 -1.25650000   -6.57880000   -3.53560000
 H                  1.36450000   -6.62550000   -3.55580000
 H                  2.52120000   -2.16800000   -2.42370000
 H                  4.77730000   -1.74970000   -1.50790000
 H                  5.64610000   -5.80760000   -1.37230000
 H                  3.41390000   -6.40770000   -2.26280000
 C                 -9.77850000   -3.01390000   -2.95920000
 C                 -8.83470000   -3.50120000   -2.09490000
 N                 -7.87990000   -2.69030000   -1.56280000
 C                 -7.81420000   -1.41830000   -1.91330000
 C                 -8.71240000   -0.82750000   -2.82400000
 C                 -8.62960000    0.55590000   -3.18130000
 C                 -7.49100000    1.40560000   -2.76550000
 C                 -6.16740000    1.01270000   -3.02570000
 C                 -5.10160000    1.85130000   -2.72840000
 C                 -5.32630000    3.11980000   -2.16130000
 C                 -4.24580000    4.02350000   -1.94820000
 C                 -3.33320000    4.82500000   -1.84000000
 C                 -2.29800000    5.80130000   -1.75860000
 C                 -0.94700000    5.41660000   -1.74000000
 C                  0.02920000    6.40900000   -1.68380000
 C                  1.47900000    6.43120000   -1.64810000
 C                  2.48470000    5.46850000   -1.65320000
 C                  3.82360000    5.89100000   -1.60990000
 C                  4.87000000    4.92600000   -1.66770000
 C                  5.75090000    4.08990000   -1.77330000
 C                  6.73320000    3.08190000   -1.98710000
 C                  8.07840000    3.26430000   -1.61840000
 C                  9.02100000    2.27640000   -1.87780000
 C                  8.65370000    1.07800000   -2.50650000
 C                  9.65630000    0.03240000   -2.80570000
 C                 10.81470000    0.33100000   -3.49870000
 C                 11.74000000   -0.67540000   -3.85430000
 C                 11.51830000   -1.99460000   -3.52970000
 C                 10.36460000   -2.34720000   -2.79110000
 C                 10.07850000   -3.67700000   -2.38990000
 C                  8.97450000   -3.94310000   -1.62440000
 N                  8.14410000   -2.94650000   -1.21120000
 C                  8.36290000   -1.69980000   -1.58470000
 C                  9.44300000   -1.32630000   -2.40940000
 C                  7.31010000    0.89900000   -2.87570000
 C                  6.36380000    1.87920000   -2.61850000
 C                  4.13330000    7.27150000   -1.55140000
 C                  3.13900000    8.24130000   -1.54850000
 C                  1.82580000    7.79450000   -1.59740000
 O                  0.72200000    8.58930000   -1.59550000
 C                 -0.35770000    7.76240000   -1.64910000
 C                 -1.68350000    8.17080000   -1.66520000
 C                 -2.64780000    7.17290000   -1.71930000
 C                 -6.64940000    3.50060000   -1.86820000
 C                 -7.71070000    2.65710000   -2.17050000
 C                 -9.63930000    1.08120000   -3.96730000
 C                -10.69470000    0.27680000   -4.45090000
 C                -10.75380000   -1.06750000   -4.16300000
 C                 -9.76540000   -1.64650000   -3.33340000
 H                -10.55090000   -3.68000000   -3.34670000
 H                 -8.81910000   -4.54490000   -1.77850000
 H                 -7.04520000   -0.80670000   -1.43750000
 H                 -5.96960000    0.05310000   -3.50960000
 H                 -4.08200000    1.54110000   -2.96470000
 H                 -0.67790000    4.35950000   -1.76680000
 H                  2.24860000    4.40420000   -1.69050000
 H                  8.38010000    4.18980000   -1.12480000
 H                 10.05940000    2.42900000   -1.57490000
 H                 11.00020000    1.36130000   -3.80960000
 H                 12.63460000   -0.39690000   -4.41550000
 H                 12.22340000   -2.77330000   -3.82680000
 H                 10.74300000   -4.49210000   -2.68080000
 H                  8.72270000   -4.95210000   -1.29420000
 H                  7.67700000   -0.93970000   -1.20690000
 H                  7.00570000   -0.01190000   -3.39670000
 H                  5.32640000    1.73050000   -2.92370000
 H                  5.18130000    7.57390000   -1.51560000
 H                  3.37430000    9.30520000   -1.50250000
 H                 -1.95220000    9.22700000   -1.62680000
 H                 -3.70420000    7.44490000   -1.72700000
 H                 -6.83650000    4.47300000   -1.40950000
 H                 -8.73090000    2.97140000   -1.93900000
 H                 -9.59910000    2.13470000   -4.25190000
 H                -11.46130000    0.73270000   -5.08100000
 H                -11.55700000   -1.69340000   -4.55660000
 C                -10.07840000   -3.67720000    2.38990000
 C                 -8.97430000   -3.94320000    1.62440000
 N                 -8.14400000   -2.94660000    1.21120000
 C                 -8.36280000   -1.69990000    1.58480000
 C                 -9.44290000   -1.32640000    2.40940000
 C                 -9.65630000    0.03220000    2.80570000
 C                 -8.65370000    1.07780000    2.50660000
 C                 -9.02100000    2.27620000    1.87780000
 C                 -8.07850000    3.26410000    1.61840000
 C                 -6.73330000    3.08190000    1.98720000
 C                 -5.75100000    4.08980000    1.77340000
 C                 -4.87010000    4.92600000    1.66780000
 C                 -3.82380000    5.89090000    1.61000000
 C                 -2.48490000    5.46850000    1.65320000
 C                 -1.47910000    6.43110000    1.64810000
 C                 -0.02940000    6.40900000    1.68390000
 C                  0.94690000    5.41660000    1.74010000
 C                  2.29790000    5.80130000    1.75860000
 C                  3.33310000    4.82500000    1.84000000
 C                  4.24570000    4.02340000    1.94820000
 C                  5.32610000    3.11980000    2.16130000
 C                  5.10150000    1.85130000    2.72850000
 C                  6.16730000    1.01270000    3.02580000
 C                  7.49090000    1.40560000    2.76550000
 C                  8.62950000    0.55600000    3.18130000
 C                  9.63930000    1.08130000    3.96730000
 C                 10.69470000    0.27690000    4.45080000
 C                 10.75390000   -1.06740000    4.16290000
 C                  9.76550000   -1.64640000    3.33340000
 C                  9.77860000   -3.01380000    2.95920000
 C                  8.83480000   -3.50110000    2.09490000
 N                  7.87990000   -2.69030000    1.56280000
 C                  7.81410000   -1.41830000    1.91330000
 C                  8.71240000   -0.82750000    2.82400000
 C                  7.71060000    2.65710000    2.17050000
 C                  6.64920000    3.50060000    1.86820000
 C                  2.64770000    7.17280000    1.71930000
 C                  1.68340000    8.17080000    1.66520000
 C                  0.35750000    7.76240000    1.64910000
 O                 -0.72220000    8.58930000    1.59540000
 C                 -1.82600000    7.79440000    1.59740000
 C                 -3.13910000    8.24130000    1.54850000
 C                 -4.13340000    7.27150000    1.55150000
 C                 -6.36380000    1.87920000    2.61870000
 C                 -7.31020000    0.89900000    2.87580000
 C                -10.81470000    0.33080000    3.49870000
 C                -11.74000000   -0.67570000    3.85430000
 C                -11.51820000   -1.99490000    3.52970000
 C                -10.36440000   -2.34740000    2.79110000
 H                -10.74280000   -4.49230000    2.68080000
 H                 -8.72250000   -4.95230000    1.29420000
 H                 -7.67690000   -0.93980000    1.20700000
 H                -10.05940000    2.42880000    1.57480000
 H                 -8.38020000    4.18960000    1.12470000
 H                 -2.24880000    4.40410000    1.69060000
 H                  0.67770000    4.35950000    1.76690000
 H                  4.08200000    1.54110000    2.96480000
 H                  5.96950000    0.05310000    3.50970000
 H                  9.59910000    2.13480000    4.25180000
 H                 11.46130000    0.73290000    5.08090000
 H                 11.55700000   -1.69320000    4.55660000
 H                 10.55100000   -3.67990000    3.34670000
 H                  8.81920000   -4.54480000    1.77850000
 H                  7.04520000   -0.80670000    1.43760000
 H                  8.73080000    2.97150000    1.93890000
 H                  6.83630000    4.47290000    1.40940000
 H                  3.70400000    7.44480000    1.72690000
 H                  1.95210000    9.22700000    1.62670000
 H                 -3.37440000    9.30520000    1.50250000
 H                 -5.18140000    7.57390000    1.51560000
 H                 -5.32650000    1.73050000    2.92400000
 H                 -7.00570000   -0.01190000    3.39690000
 H                -11.00030000    1.36110000    3.80960000
 H                -12.63460000   -0.39720000    4.41540000
 H                -12.22330000   -2.77360000    3.82680000

 1 5 1.0 32 1.0 59 1.0 134 1.0
 2 17 1.0 44 1.0 88 1.0 163 1.0
 3 4 2.0 8 1.5 20 1.0
 4 5 1.5 21 1.0
 5 6 1.5
 6 7 2.0 22 1.0
 7 8 1.5 23 1.0
 8 9 1.0
 9 10 2.0 13 1.0
 10 11 1.5 24 1.0
 11 12 2.0 25 1.0
 12 13 1.0 14 1.0
 13
 14 15 1.5 19 1.5
 15 16 2.0 26 1.0
 16 17 1.5 27 1.0
 17 18 1.5
 18 19 2.0 28 1.0
 19 29 1.0
 20
 21
 22
 23
 24
 25
 26
 27
 28
 29
 30 31 2.0 35 1.5 47 1.0
 31 32 1.5 48 1.0
 32 33 1.5
 33 34 2.0 49 1.0
 34 35 1.5 50 1.0
 35 36 1.0
 36 37 2.0 40 1.0
 37 38 1.5 51 1.0
 38 39 2.0 52 1.0
 39 40 1.0 41 1.0
 40
 41 42 1.5 46 1.5
 42 43 2.0 53 1.0
 43 44 1.5 54 1.0
 44 45 1.5
 45 46 2.0 55 1.0
 46 56 1.0
 47
 48
 49
 50
 51
 52
 53
 54
 55
 56
 57 58 2.0 105 1.5 106 1.0
 58 59 1.5 107 1.0
 59 60 2.0
 60 61 1.5 108 1.0
 61 62 1.5 105 1.5
 62 63 1.0 102 2.0
 63 64 1.5 101 1.5
 64 65 1.5 109 1.0
 65 66 1.5 110 1.0
 66 67 1.5 100 1.5
 67 68 3.0
 68 69 1.5
 69 70 1.5 99 1.5
 70 71 1.5 111 1.0
 71 72 1.0 97 1.5
 72 73 1.5 95 1.5
 73 74 1.5 112 1.0
 74 75 1.5 93 1.5
 75 76 3.0
 76 77 1.5
 77 78 1.5 92 1.5
 78 79 1.5 113 1.0
 79 80 1.5 114 1.0
 80 81 1.0 91 1.5
 81 82 2.0 90 1.5
 82 83 1.5 115 1.0
 83 84 2.0 116 1.0
 84 85 1.5 117 1.0
 85 86 1.5 90 1.5
 86 87 2.0 118 1.0
 87 88 1.5 119 1.0
 88 89 2.0
 89 90 1.5 120 1.0
 90
 91 92 1.5 121 1.0
 92 122 1.0
 93 94 1.5 123 1.0
 94 95 1.5 124 1.0
 95 96 1.0
 96 97 1.0
 97 98 1.5
 98 99 1.5 125 1.0
 99 126 1.0
 100 101 1.5 127 1.0
 101 128 1.0
 102 103 1.5 129 1.0
 103 104 2.0 130 1.0
 104 105 1.5 131 1.0
 105
 106
 107
 108
 109
 110
 111
 112
 113
 114
 115
 116
 117
 118
 119
 120
 121
 122
 123
 124
 125
 126
 127
 128
 129
 130
 131
 132 133 2.0 180 1.5 181 1.0
 133 134 1.5 182 1.0
 134 135 2.0
 135 136 1.5 183 1.0
 136 137 1.5 180 1.5
 137 138 1.0 177 2.0
 138 139 1.5 176 1.5
 139 140 1.5 184 1.0
 140 141 1.5 185 1.0
 141 142 1.5 175 1.5
 142 143 3.0
 143 144 1.5
 144 145 1.5 174 1.5
 145 146 1.5 186 1.0
 146 147 1.0 172 1.5
 147 148 1.5 170 1.5
 148 149 1.5 187 1.0
 149 150 1.5 168 1.5
 150 151 3.0
 151 152 1.5
 152 153 1.5 167 1.5
 153 154 1.5 188 1.0
 154 155 1.5 189 1.0
 155 156 1.0 166 1.5
 156 157 2.0 165 1.5
 157 158 1.5 190 1.0
 158 159 2.0 191 1.0
 159 160 1.5 192 1.0
 160 161 1.5 165 1.5
 161 162 2.0 193 1.0
 162 163 1.5 194 1.0
 163 164 2.0
 164 165 1.5 195 1.0
 165
 166 167 1.5 196 1.0
 167 197 1.0
 168 169 1.5 198 1.0
 169 170 1.5 199 1.0
 170 171 1.0
 171 172 1.0
 172 173 1.5
 173 174 1.5 200 1.0
 174 201 1.0
 175 176 1.5 202 1.0
 176 203 1.0
 177 178 1.5 204 1.0
 178 179 2.0 205 1.0
 179 180 1.5 206 1.0
 180
 181
 182
 183
 184
 185
 186
 187
 188
 189
 190
 191
 192
 193
 194
 195
 196
 197
 198
 199
 200
 201
 202
 203
 204
 205
 206

