%nprocshared=48
%mem=120GB
%chk=m2_lb_xray_opt_FINAL.chk
# SP B97D3/def2svp scrf=(solvent=dmso)

m2_lb

4 1
 C                 -8.10042700    1.73728400   -2.36154200
 C                 -7.89477400    2.34152200   -3.58566700
 C                 -6.82540400    1.92160200   -4.42785100
 C                 -6.50832500    2.55161600   -5.66169200
 C                 -5.40877100    2.11938900   -6.39022400
 C                 -4.61713400    1.02650000   -5.94893300
 C                 -4.91744700    0.34400900   -4.77328500
 C                 -6.01326600    0.82139600   -3.97423100
 C                 -6.28827500    0.28363100   -2.69584500
 C                 -4.13973000   -0.84913100   -4.34970500
 C                 -2.75366900   -0.75627600   -4.10950300
 C                 -2.02479200   -1.87114400   -3.69083600
 C                 -2.66916700   -3.11976200   -3.50231600
 C                 -4.05658300   -3.22114000   -3.77523600
 C                 -4.77934600   -2.09933900   -4.18424000
 C                 -1.95117400   -4.23068400   -2.97217200
 C                 -1.34874300   -5.14290100   -2.41204000
 C                 -0.64859100   -6.05078700   -1.55042800
 C                 -0.67275400   -7.45445400   -1.72817800
 C                  0.00792500   -8.25186700   -0.79940800
 C                  0.68718500   -7.64711800    0.26575300
 C                  0.65941300   -6.23567500    0.36269900
 C                  1.35847100   -5.50998800    1.38307500
 C                  1.96029100   -4.72267100    2.10883400
 C                  2.67716500   -3.73455900    2.84388700
 C                  4.06225400   -3.89060000    3.10248000
 C                  4.78480300   -2.86822700    3.71967600
 C                  4.14660600   -1.66916800    4.11265900
 C                  2.76248700   -1.52793700    3.88542000
 C                  2.03401000   -2.54159100    3.25983200
 C                  4.92467200   -0.57802300    4.75491800
 C                  4.62669600   -0.13145300    6.03936300
 C                  5.41913000    0.85847400    6.67838100
 C                  6.51706000    1.42163500    6.04276300
 C                  6.83174700    1.03709500    4.71123100
 C                  7.90038300    1.60809300    3.96230200
 C                  8.10420000    1.24653200    2.64570900
 C                  6.29096600   -0.24268300    2.70086500
 C                  6.01868300    0.04280600    4.05870700
 C                 -8.11607800   -2.35080600   -1.73298400
 C                 -7.91662700   -3.57563400   -2.33793500
 C                 -6.84744700   -4.42070900   -1.92315200
 C                 -6.53643200   -5.65534100   -2.55465300
 C                 -5.43765600   -6.38753400   -2.12659900
 C                 -4.64099100   -5.94929800   -1.03602700
 C                 -4.93504600   -4.77280300   -0.35219800
 C                 -6.02965700   -3.96980400   -0.82602000
 C                 -6.29805400   -2.69014500   -0.28782000
 C                 -4.15248800   -4.35205400    0.83892100
 C                 -2.76580600   -4.11649100    0.74277100
 C                 -2.03290000   -3.69869500    1.85541500
 C                 -2.67391700   -3.50638200    3.10517800
 C                 -4.06174500   -3.77585600    3.21026100
 C                 -4.78837200   -4.18404000    2.09069400
 C                 -1.95288900   -2.97578800    4.21398800
 C                 -1.34978100   -2.41539900    5.12560300
 C                 -0.64960000   -1.55444800    6.03410600
 C                 -0.67459900   -1.73333600    7.43763800
 C                  0.00484500   -0.80472800    8.23628800
 C                  0.68388400    0.26129700    7.63284000
 C                  0.65728500    0.35923100    6.22142900
 C                  1.35637500    1.38061600    5.49714400
 C                  1.95862800    2.10786500    4.71151100
 C                  2.67658000    2.84403100    3.72495300
 C                  2.03542400    3.25886000    2.53051000
 C                  2.76528700    3.88405200    1.51756600
 C                  4.14904500    4.11191300    1.66097900
 C                  4.78501800    3.72070500    2.86181000
 C                  4.06110800    3.10431700    3.88367300
 C                  4.93015000    4.75283400    0.57117800
 C                  4.63433100    6.03683900    0.12203700
 C                  5.43160300    6.67473200   -0.86476200
 C                  6.53272600    6.03883300   -1.42149000
 C                  6.84527000    4.70736100   -1.03466700
 C                  7.91685900    3.95769500   -1.59945600
 C                  8.11661300    2.64037100   -1.23801000
 C                  6.29503500    2.69729800    0.24117400
 C                  6.02645500    4.05571600   -0.04458000
 C                 -8.12126300   -1.72351800    2.34918000
 C                 -7.92015600   -2.33102400    3.57250800
 C                 -6.84887900   -1.91915600    4.41644700
 C                 -6.53598300   -2.55370200    5.64901800
 C                 -5.43557100   -2.12801300    6.38012500
 C                 -4.63919400   -1.03677000    5.94305200
 C                 -4.93512900   -0.34995000    4.76874300
 C                 -6.03125400   -0.82152900    3.96654200
 C                 -6.30110800   -0.28098500    2.68817200
 C                 -4.15261500    0.84150900    4.34903800
 C                 -4.78782900    2.09408600    4.18399500
 C                 -4.06062800    3.21385800    3.77733300
 C                 -2.67316800    3.10817800    3.50622300
 C                 -2.03301700    1.85744800    3.69495200
 C                 -2.76635400    0.74463800    4.11139800
 C                 -1.95161300    4.21743300    2.97735200
 C                 -1.34758500    5.12915800    2.41813700
 C                 -0.64614000    6.03787300    1.55846600
 C                 -0.66668500    7.44100900    1.74110700
 C                  0.01479800    8.23999500    0.81427000
 C                  0.69115100    7.63723200   -0.25383600
 C                  0.65999200    6.22620400   -0.35552100
 C                  1.35724300    5.50264500   -1.37864400
 C                  1.95946100    4.71789000   -2.10684100
 C                  2.67757400    3.73121000   -2.84266400
 C                  2.03554800    2.53818400   -3.26016800
 C                  2.76543000    1.52485200   -3.88460100
 C                  4.14995600    1.66639700   -4.10911400
 C                  4.78685500    2.86581200   -3.71516500
 C                  4.06296800    3.88809000   -3.09938600
 C                  4.92976800    0.57603900   -4.75051000
 C                  4.63323100    0.12923100   -6.03523400
 C                  5.42761000   -0.85926100   -6.67398800
 C                  6.52609800   -1.42068400   -6.03781500
 C                  6.83925900   -1.03622100   -4.70588000
 C                  7.90834100   -1.60584900   -3.95639900
 C                  8.11029100   -1.24529000   -2.63919000
 C                  6.29447600    0.24083400   -2.69513800
 C                  6.02418400   -0.04344000   -4.05363500
 C                 -8.12150700    2.35690300    1.72259600
 C                 -7.92038800    3.57888900    2.33278100
 C                 -6.84809700    4.42289300    1.92376800
 C                 -6.53472500    5.65407200    2.56080600
 C                 -5.43377000    6.38547900    2.13694100
 C                 -4.63726500    5.95043200    1.04495100
 C                 -4.93330800    4.77741600    0.35617100
 C                 -6.02979300    3.97474700    0.82602000
 C                 -6.29931000    2.69748600    0.28294600
 C                 -4.15187200    4.35910400   -0.83657000
 C                 -4.78804900    4.20053700   -2.08944700
 C                 -4.06332300    3.79196500   -3.21017800
 C                 -2.67746500    3.51240800   -3.10501600
 C                 -2.03599800    3.69612400   -1.85415800
 C                 -2.76681900    4.11449200   -0.74037600
 C                 -1.95816200    2.98070000   -4.21440900
 C                 -1.35434200    2.42063200   -5.12574100
 C                 -0.65208100    1.56202300   -6.03472300
 C                 -0.67320200    1.74471800   -7.43780300
 C                  0.00997400    0.81953500   -8.23716200
 C                  0.68794000   -0.24784600   -7.63485400
 C                  0.65669000   -0.35023000   -6.22386700
 C                  1.35414000   -1.37337900   -5.50041600
 C                  1.95478900   -2.10188900   -4.71471200
 C                  2.67207400   -2.83918700   -3.72847700
 C                  2.02941300   -3.26059600   -2.53716800
 C                  2.75896800   -3.88663600   -1.52454500
 C                  4.14402800   -4.10864100   -1.66501800
 C                  4.78155100   -3.71103600   -2.86294100
 C                  4.05794300   -3.09387200   -3.88450200
 C                  4.92399300   -4.75197800   -0.57599700
 C                  4.62720700   -6.03731500   -0.13130700
 C                  5.42210500   -6.67809300    0.85535700
 C                  6.52181400   -6.04388600    1.41663700
 C                  6.83565400   -4.71157400    1.03403800
 C                  7.90659400   -3.96416200    1.60297000
 C                  8.10928500   -2.64670400    1.24365500
 C                  6.29000900   -2.69806800   -0.23827700
 C                  6.01942700   -4.05690700    0.04378100
 H                 -8.90301500    2.04522300   -1.68659200
 H                 -8.55212300    3.15889400   -3.89724500
 H                 -7.12482200    3.38495400   -6.01371600
 H                 -5.14983800    2.61880300   -7.33007700
 H                 -3.77350100    0.68992700   -6.56054400
 H                 -5.65953300   -0.51459300   -2.29299500
 H                 -2.24322100    0.20212000   -4.22529900
 H                 -0.95119500   -1.77229300   -3.50352600
 H                 -4.55787800   -4.18455800   -3.65288200
 H                 -5.85134300   -2.19252900   -4.39182000
 H                 -1.21179900   -7.89490800   -2.57243600
 H                  0.00923000   -9.34195300   -0.90518400
 H                  1.22796600   -8.24113700    1.00868200
 H                  4.56224500   -4.81549500    2.80409800
 H                  5.85538400   -3.00227500    3.91193500
 H                  2.25392700   -0.60640900    4.17636000
 H                  0.96192800   -2.40580200    3.08743400
 H                  3.78434500   -0.57842700    6.57772100
 H                  5.16229400    1.17025300    7.69653300
 H                  7.13402500    2.17319100    6.54559700
 H                  8.55971400    2.35044500    4.42230700
 H                  8.90717900    1.67583200    2.04110700
 H                  5.66083900   -0.94976400    2.15509900
 H                 -8.91900600   -1.67438700   -2.03704100
 H                 -8.57915700   -3.88542400   -3.15182300
 H                 -7.15701900   -6.00571500   -3.38562700
 H                 -5.18307500   -7.32801500   -2.62713000
 H                 -3.79848400   -6.56412600   -0.70243500
 H                 -5.66451500   -2.28891800    0.50748300
 H                 -2.25845600   -4.23492100   -0.21692800
 H                 -0.95893100   -3.51479100    1.75384900
 H                 -4.56042900   -3.65131100    4.17473900
 H                 -5.86062100   -4.38875800    2.18697600
 H                 -1.21363700   -2.57814900    7.87704100
 H                  0.00528300   -0.91116700    9.32630900
 H                  1.22332000    1.00446100    8.22782500
 H                  0.96367000    3.08583200    2.39302200
 H                  2.25823200    4.17412600    0.59494200
 H                  5.85522700    3.91404600    2.99728100
 H                  4.55948400    2.80743300    4.80992800
 H                  3.78984100    6.57566300    0.56439500
 H                  5.17617100    7.69251800   -1.17893100
 H                  7.15386900    6.54123100   -2.16991300
 H                  8.58096800    4.41772300   -2.33753500
 H                  8.92090400    2.03435800   -1.66315500
 H                  5.66019300    2.15185300    0.94430000
 H                 -8.92574900   -2.02522400    1.67360800
 H                 -8.58321700   -3.14442200    3.88229800
 H                 -7.15637500   -3.38530800    5.99828200
 H                 -5.17940100   -2.63090300    7.31889700
 H                 -3.79542600   -0.70495600    6.55711600
 H                 -5.66730500    0.51426800    2.28729100
 H                 -5.85987700    2.19109500    4.38970400
 H                 -4.55858400    4.17901900    3.65525500
 H                 -0.95941500    1.75529800    3.50930900
 H                 -2.25972200   -0.21578100    4.22691900
 H                 -1.20354000    7.87980300    2.58763000
 H                  0.01911600    9.32970400    0.92383000
 H                  1.23237200    8.23225800   -0.99562200
 H                  0.96321200    2.40202400   -3.08961200
 H                  2.25786200    0.60309000   -4.17646400
 H                  5.85764900    3.00018200   -3.90615800
 H                  4.56196700    4.81326200   -2.80025900
 H                  3.79029700    0.57478000   -6.57386900
 H                  5.17184300   -1.17125900   -7.69234600
 H                  7.14457500   -2.17088400   -6.54088000
 H                  8.56905000   -2.34701800   -4.41620400
 H                  8.91368600   -1.67325700   -2.03398300
 H                  5.66254200    0.94624000   -2.14925500
 H                 -8.92691700    1.68119700    2.02165500
 H                 -8.58410400    3.88729200    3.14621200
 H                 -7.15512000    6.00230100    3.39278600
 H                 -5.17752800    7.32327200    2.64165900
 H                 -3.79342600    6.56508200    0.71439700
 H                 -5.66469700    2.29785700   -0.51227200
 H                 -5.85907600    4.41197900   -2.18547200
 H                 -4.56210600    3.67406800   -4.17546200
 H                 -0.96332300    3.50475600   -1.75271700
 H                 -2.25938200    4.22609900    0.22011000
 H                 -1.21182900    2.59016400   -7.87651900
 H                  0.01417300    0.93016200   -9.32678000
 H                  1.23036600   -0.98861300   -8.23011600
 H                  0.95671900   -3.09202500   -2.40156000
 H                  2.25028100   -4.18191000   -0.60443500
 H                  5.85265600   -3.90054000   -2.99681600
 H                  4.55743200   -2.79219600   -4.80855700
 H                  3.78399200   -6.57504600   -0.57735300
 H                  5.16567200   -7.69686800    1.16556200
 H                  7.14081900   -6.54831700    2.16545000
 H                  8.56829400   -4.42640600    2.34191400
 H                  8.91454300   -2.04332700    1.67034900
 H                  5.65688400   -2.15022800   -0.94109000
 N                 -7.28152800    0.72735500   -1.92076100
 N                  0.00418000   -5.45997000   -0.52700700
 N                  7.28301700    0.33988100    2.02225600
 N                 -7.29031100   -1.91177400   -0.72787800
 N                  0.00312400   -0.53027100    5.44457400
 N                  7.28874900    2.01751000   -0.33713000
 N                 -7.29489200   -0.71882000    1.91042800
 N                  0.00406700    5.44896100    0.53233100
 N                  7.28638900   -0.34120600   -2.01586900
 N                 -7.29378000    1.91940000    0.71838700
 N                 -0.00008700    0.53670400   -5.44630500
 N                  7.28394400   -2.02080700    0.34261500
 Pd                -7.38783100    0.00412600   -0.00558900
 Pd                 7.38285300   -0.00148400    0.00337700

