%chk=m3_l1_FINAL.chk
%nprocshared=48
%mem=120GB
# SP PBE1PBE/def2svp empiricaldispersion=GD3BJ scrf=(solvent=dmso)

m3_l1

6 1
 Pd                 1.81560000   -7.10760000    0.14330000
 Pd                -7.67920000    2.10800000   -0.19730000
 Pd                 5.65940000    5.21500000   -0.14150000
 C                  3.08240000   -6.02000000    2.52890000
 N                  3.21690000   -7.00880000    1.63230000
 C                  4.41300000   -7.60580000    1.50290000
 C                  5.53670000   -7.16190000    2.18560000
 C                  5.44180000   -6.03170000    3.00880000
 C                  6.62370000   -5.31240000    3.52210000
 C                  7.72260000   -5.95790000    4.12590000
 C                  8.84280000   -5.24780000    4.55710000
 C                  8.84610000   -3.87580000    4.33510000
 O                  9.85630000   -3.00810000    4.63140000
 C                  9.47190000   -1.78380000    4.17390000
 C                 10.21250000   -0.60900000    4.22770000
 C                  9.64930000    0.52270000    3.64030000
 C                  8.38650000    0.48800000    3.00860000
 C                  7.83410000    1.65540000    2.29640000
 C                  7.03020000    1.45310000    1.16330000
 C                  6.47440000    2.53030000    0.50710000
 N                  6.68000000    3.79690000    0.90490000
 C                  7.46130000    4.02270000    1.97120000
 C                  8.05360000    2.98650000    2.68180000
 C                  7.64880000   -0.70230000    3.00500000
 C                  8.19470000   -1.83760000    3.58940000
 C                  7.77470000   -3.21300000    3.71280000
 C                  6.64880000   -3.92750000    3.32210000
 C                  4.15920000   -5.50900000    3.22770000
 H                  2.08790000   -5.59190000    2.65630000
 H                  4.47990000   -8.42340000    0.78270000
 H                  6.49720000   -7.64300000    1.99540000
 H                  7.69060000   -7.03910000    4.27750000
 H                  9.68490000   -5.74890000    5.03600000
 H                 11.20120000   -0.57920000    4.68700000
 H                 10.22580000    1.45000000    3.63560000
 H                  6.84590000    0.45370000    0.77000000
 H                  5.84460000    2.37980000   -0.37190000
 H                  7.60200000    5.06390000    2.26690000
 H                  8.66090000    3.23030000    3.55440000
 H                  6.65670000   -0.74530000    2.55320000
 H                  5.81940000   -3.42370000    2.82210000
 H                  4.00120000   -4.67480000    3.91190000
 C                  3.75360000   -5.20010000   -0.78860000
 N                  3.26430000   -6.40980000   -1.10660000
 C                  3.74450000   -7.03690000   -2.19020000
 C                  4.73410000   -6.47570000   -2.98680000
 C                  5.26410000   -5.21510000   -2.66990000
 C                  6.32720000   -4.55130000   -3.44810000
 C                  7.30490000   -5.29330000   -4.14780000
 C                  8.37360000   -4.68080000   -4.79850000
 C                  8.44130000   -3.29440000   -4.73310000
 O                  9.42960000   -2.50790000   -5.24160000
 C                  9.12500000   -1.22250000   -4.90310000
 C                  9.90350000   -0.09880000   -5.15290000
 C                  9.43530000    1.11890000   -4.66150000
 C                  8.20930000    1.21700000   -3.97130000
 C                  7.71740000    2.47580000   -3.37910000
 C                  6.35740000    2.80800000   -3.46510000
 C                  5.84940000    3.82370000   -2.67800000
 N                  6.61560000    4.51440000   -1.81800000
 C                  7.94220000    4.30390000   -1.82520000
 C                  8.52840000    3.31470000   -2.60240000
 C                  7.43630000    0.07080000   -3.74990000
 C                  7.90870000   -1.15630000   -4.20180000
 C                  7.46470000   -2.52550000   -4.07590000
 C                  6.40290000   -3.15230000   -3.43550000
 C                  4.74010000   -4.58520000   -1.52970000
 H                  3.34800000   -4.71630000    0.10160000
 H                  3.31750000   -8.01410000   -2.42320000
 H                  5.07140000   -7.02790000   -3.86470000
 H                  7.25230000   -6.38380000   -4.14780000
 H                  9.13800000   -5.26510000   -5.31200000
 H                 10.84680000   -0.16970000   -5.69570000
 H                 10.02750000    2.02080000   -4.83130000
 H                  5.68060000    2.24780000   -4.11100000
 H                  4.78470000    4.05910000   -2.69860000
 H                  8.53870000    4.90230000   -1.13440000
 H                  9.60220000    3.14130000   -2.51720000
 H                  6.50430000    0.13080000   -3.18450000
 H                  5.64420000   -2.55260000   -2.93110000
 H                  5.11680000   -3.62170000   -1.18820000
 C                 -0.32170000   -6.30250000    1.85780000
 N                  0.26520000   -7.43060000    1.42680000
 C                 -0.31310000   -8.60720000    1.70760000
 C                 -1.53040000   -8.69020000    2.37390000
 C                 -2.19080000   -7.51900000    2.77320000
 C                 -3.55230000   -7.47960000    3.33930000
 C                 -4.09200000   -8.50030000    4.15280000
 C                 -5.38210000   -8.42230000    4.68030000
 C                 -6.12960000   -7.29240000    4.36550000
 O                 -7.40370000   -7.00700000    4.76450000
 C                 -7.73330000   -5.80480000    4.20800000
 C                 -8.93290000   -5.11460000    4.34470000
 C                 -9.04500000   -3.89430000    3.67660000
 C                 -7.99700000   -3.37200000    2.88640000
 C                 -8.09470000   -2.09730000    2.15110000
 C                 -7.35200000   -1.93010000    0.97140000
 C                 -7.33090000   -0.71150000    0.33020000
 N                 -8.02900000    0.34720000    0.77450000
 C                 -8.78920000    0.20230000    1.87090000
 C                 -8.84920000   -0.99350000    2.57600000
 C                 -6.79750000   -4.08550000    2.78150000
 C                 -6.67320000   -5.29870000    3.43950000
 C                 -5.61890000   -6.27280000    3.54710000
 C                 -4.33630000   -6.36210000    3.03070000
 C                 -1.51710000   -6.30900000    2.54200000
 H                  0.17110000   -5.35790000    1.62010000
 H                  0.20140000   -9.50520000    1.35990000
 H                 -1.97660000   -9.67360000    2.52840000
 H                 -3.47870000   -9.36890000    4.40230000
 H                 -5.78210000   -9.21210000    5.31730000
 H                 -9.75550000   -5.51140000    4.94080000
 H                 -9.98610000   -3.34510000    3.75100000
 H                 -6.78070000   -2.74960000    0.53720000
 H                 -6.72740000   -0.57570000   -0.56780000
 H                 -9.34530000    1.08060000    2.20320000
 H                 -9.45710000   -1.03600000    3.48070000
 H                 -5.95430000   -3.69150000    2.21320000
 H                 -3.96370000   -5.57860000    2.37020000
 H                 -1.92890000   -5.35740000    2.87620000
 C                  0.01170000   -5.79120000   -1.75570000
 N                  0.41140000   -6.99800000   -1.32590000
 C                 -0.25200000   -8.08660000   -1.74340000
 C                 -1.36250000   -8.00120000   -2.56640000
 C                 -1.83250000   -6.74790000   -2.99040000
 C                 -3.06860000   -6.60660000   -3.78460000
 C                 -3.50780000   -7.65280000   -4.62740000
 C                 -4.70110000   -7.58060000   -5.33780000
 C                 -5.45760000   -6.42720000   -5.17880000
 O                 -6.66800000   -6.18330000   -5.74800000
 C                 -7.06920000   -4.95780000   -5.31110000
 C                 -8.27450000   -4.33930000   -5.61750000
 C                 -8.50920000   -3.09300000   -5.04230000
 C                 -7.55460000   -2.47110000   -4.21160000
 C                 -7.79930000   -1.16310000   -3.57520000
 C                 -6.77510000   -0.20640000   -3.51890000
 C                 -6.92050000    0.90580000   -2.71180000
 N                 -8.01490000    1.10690000   -1.95900000
 C                 -9.05920000    0.27480000   -2.10630000
 C                 -8.99680000   -0.85080000   -2.91600000
 C                 -6.34400000   -3.11590000   -3.92450000
 C                 -6.10760000   -4.37690000   -4.46430000
 C                 -5.04430000   -5.35550000   -4.36600000
 C                 -3.84280000   -5.44370000   -3.66680000
 C                 -1.08650000   -5.63060000   -2.58190000
 H                  0.58820000   -4.92810000   -1.41650000
 H                  0.10730000   -9.05250000   -1.38360000
 H                 -1.88150000   -8.92220000   -2.83250000
 H                 -2.89020000   -8.54550000   -4.74200000
 H                 -5.03150000   -8.39350000   -5.98520000
 H                 -9.00460000   -4.81300000   -6.27470000
 H                 -9.44610000   -2.57620000   -5.26120000
 H                 -5.84580000   -0.34300000   -4.07280000
 H                 -6.11240000    1.63220000   -2.62320000
 H                 -9.94300000    0.48310000   -1.50070000
 H                 -9.85200000   -1.52760000   -2.94630000
 H                 -5.61510000   -2.65420000   -3.25530000
 H                 -3.53760000   -4.63170000   -3.00460000
 H                 -1.35200000   -4.62280000   -2.90160000
 C                 -5.85420000    2.51020000    2.01160000
 N                 -7.01290000    2.97690000    1.51850000
 C                 -7.48250000    4.15270000    1.96200000
 C                 -6.77460000    4.93360000    2.86270000
 C                 -5.51660000    4.50940000    3.31620000
 C                 -4.64170000    5.36830000    4.13560000
 C                 -5.16850000    6.20680000    5.14150000
 C                 -4.35550000    7.04410000    5.89980000
 C                 -2.99780000    7.03490000    5.60790000
 O                 -2.04710000    7.80010000    6.21000000
 C                 -0.86520000    7.51050000    5.60210000
 C                  0.36230000    8.09290000    5.88930000
 C                  1.44770000    7.68430000    5.12080000
 C                  1.32120000    6.71180000    4.10450000
 C                  2.47540000    6.33030000    3.26950000
 C                  2.59770000    5.03260000    2.74850000
 C                  3.62250000    4.73420000    1.86980000
 N                  4.52500000    5.65210000    1.48850000
 C                  4.46980000    6.88090000    2.02300000
 C                  3.47430000    7.24950000    2.91380000
 C                  0.07240000    6.12920000    3.85040000
 C                 -1.02810000    6.53730000    4.59920000
 C                 -2.44090000    6.22000000    4.60540000
 C                 -3.26570000    5.37230000    3.87140000
 C                 -5.08850000    3.23940000    2.90160000
 H                 -5.52170000    1.53220000    1.65820000
 H                 -8.43420000    4.49160000    1.54880000
 H                 -7.18320000    5.90260000    3.15220000
 H                 -6.24030000    6.18550000    5.34930000
 H                 -4.76410000    7.68190000    6.68430000
 H                  0.46760000    8.83930000    6.67730000
 H                  2.42760000    8.11930000    5.32690000
 H                  1.89370000    4.24530000    3.01920000
 H                  3.72180000    3.73480000    1.44190000
 H                  5.22860000    7.59590000    1.70060000
 H                  3.45600000    8.27610000    3.28130000
 H                 -0.04940000    5.39680000    3.05040000
 H                 -2.84900000    4.75280000    3.07500000
 H                 -4.15000000    2.81540000    3.25980000
 C                 -5.63500000    3.78050000   -1.28800000
 N                 -6.96860000    3.77260000   -1.12870000
 C                 -7.66450000    4.86610000   -1.46950000
 C                 -7.04560000    6.01040000   -1.95810000
 C                 -5.65140000    6.04660000   -2.12080000
 C                 -4.90210000    7.22240000   -2.60480000
 C                 -5.50550000    8.24840000   -3.36750000
 C                 -4.77760000    9.32090000   -3.88180000
 C                 -3.41220000    9.34260000   -3.62080000
 O                 -2.50320000   10.25310000   -4.07300000
 C                 -1.27860000    9.84070000   -3.63440000
 C                 -0.04980000   10.42980000   -3.90950000
 C                  1.08600000    9.79160000   -3.41130000
 C                  1.00790000    8.59870000   -2.65840000
 C                  2.20270000    7.86760000   -2.19600000
 C                  2.12890000    6.47660000   -2.01510000
 C                  3.20190000    5.78720000   -1.49380000
 N                  4.35760000    6.39250000   -1.17610000
 C                  4.47910000    7.70980000   -1.39280000
 C                  3.43210000    8.47310000   -1.89510000
 C                 -0.24840000    8.05450000   -2.36510000
 C                 -1.38590000    8.67310000   -2.86150000
 C                 -2.79010000    8.34760000   -2.84970000
 C                 -3.53090000    7.29760000   -2.32990000
 C                 -4.95850000    4.87000000   -1.78910000
 H                 -5.09140000    2.88010000   -0.99470000
 H                 -8.74650000    4.82580000   -1.33100000
 H                 -7.66790000    6.87630000   -2.18630000
 H                 -6.57140000    8.19380000   -3.59610000
 H                 -5.25610000   10.09350000   -4.48470000
 H                  0.02690000   11.33610000   -4.51130000
 H                  2.06490000   10.21350000   -3.64830000
 H                  1.23340000    5.91480000   -2.27710000
 H                  3.13170000    4.71290000   -1.30820000
 H                  5.43640000    8.16580000   -1.13270000
 H                  3.57900000    9.54760000   -2.01140000
 H                 -0.34570000    7.15600000   -1.75480000
 H                 -3.03220000    6.54810000   -1.71630000
 H                 -3.88190000    4.78060000   -1.92120000

 1 5 1.0 44 1.0 83 1.0 122 1.0
 2 99 1.0 138 1.0 161 1.0 200 1.0
 3 21 1.0 60 1.0 177 1.0 216 1.0
 4 5 1.5 28 2.0 29 1.0
 5 6 1.5
 6 7 1.5 30 1.0
 7 8 1.5 31 1.0
 8 9 1.0 28 1.5
 9 10 1.5 27 1.5
 10 11 1.5 32 1.0
 11 12 1.5 33 1.0
 12 13 1.0 26 1.5
 13 14 1.0
 14 15 1.5 25 1.5
 15 16 1.5 34 1.0
 16 17 1.5 35 1.0
 17 18 1.0 24 1.5
 18 19 1.5 23 1.5
 19 20 2.0 36 1.0
 20 21 1.5 37 1.0
 21 22 1.5
 22 23 1.5 38 1.0
 23 39 1.0
 24 25 1.5 40 1.0
 25 26 1.5
 26 27 1.5
 27 41 1.0
 28 42 1.0
 29
 30
 31
 32
 33
 34
 35
 36
 37
 38
 39
 40
 41
 42
 43 44 1.5 67 2.0 68 1.0
 44 45 1.5
 45 46 1.5 69 1.0
 46 47 1.5 70 1.0
 47 48 1.0 67 1.5
 48 49 1.5 66 1.5
 49 50 1.5 71 1.0
 50 51 1.5 72 1.0
 51 52 1.0 65 1.5
 52 53 1.0
 53 54 1.5 64 1.5
 54 55 1.5 73 1.0
 55 56 1.5 74 1.0
 56 57 1.0 63 1.5
 57 58 1.5 62 1.5
 58 59 2.0 75 1.0
 59 60 1.5 76 1.0
 60 61 1.5
 61 62 1.5 77 1.0
 62 78 1.0
 63 64 1.5 79 1.0
 64 65 1.5
 65 66 1.5
 66 80 1.0
 67 81 1.0
 68
 69
 70
 71
 72
 73
 74
 75
 76
 77
 78
 79
 80
 81
 82 83 1.5 106 2.0 107 1.0
 83 84 1.5
 84 85 1.5 108 1.0
 85 86 1.5 109 1.0
 86 87 1.0 106 1.5
 87 88 1.5 105 1.5
 88 89 1.5 110 1.0
 89 90 1.5 111 1.0
 90 91 1.0 104 1.5
 91 92 1.0
 92 93 1.5 103 1.5
 93 94 1.5 112 1.0
 94 95 1.5 113 1.0
 95 96 1.0 102 1.5
 96 97 1.5 101 1.5
 97 98 2.0 114 1.0
 98 99 1.5 115 1.0
 99 100 1.5
 100 101 1.5 116 1.0
 101 117 1.0
 102 103 2.0 118 1.0
 103 104 1.5
 104 105 2.0
 105 119 1.0
 106 120 1.0
 107
 108
 109
 110
 111
 112
 113
 114
 115
 116
 117
 118
 119
 120
 121 122 1.5 145 2.0 146 1.0
 122 123 1.5
 123 124 2.0 147 1.0
 124 125 1.5 148 1.0
 125 126 1.0 145 1.5
 126 127 1.5 144 1.5
 127 128 1.5 149 1.0
 128 129 1.5 150 1.0
 129 130 1.0 143 1.5
 130 131 1.0
 131 132 1.5 142 1.5
 132 133 1.5 151 1.0
 133 134 1.5 152 1.0
 134 135 1.0 141 1.5
 135 136 1.5 140 1.5
 136 137 2.0 153 1.0
 137 138 1.5 154 1.0
 138 139 1.5
 139 140 1.5 155 1.0
 140 156 1.0
 141 142 1.5 157 1.0
 142 143 1.0
 143 144 1.5
 144 158 1.0
 145 159 1.0
 146
 147
 148
 149
 150
 151
 152
 153
 154
 155
 156
 157
 158
 159
 160 161 1.5 184 2.0 185 1.0
 161 162 1.5
 162 163 1.5 186 1.0
 163 164 1.5 187 1.0
 164 165 1.0 184 1.5
 165 166 1.5 183 1.5
 166 167 1.5 188 1.0
 167 168 1.5 189 1.0
 168 169 1.0 182 1.5
 169 170 1.0
 170 171 1.5 181 1.5
 171 172 1.5 190 1.0
 172 173 1.5 191 1.0
 173 174 1.0 180 1.5
 174 175 1.5 179 1.5
 175 176 2.0 192 1.0
 176 177 1.5 193 1.0
 177 178 1.5
 178 179 2.0 194 1.0
 179 195 1.0
 180 181 1.5 196 1.0
 181 182 1.0
 182 183 1.5
 183 197 1.0
 184 198 1.0
 185
 186
 187
 188
 189
 190
 191
 192
 193
 194
 195
 196
 197
 198
 199 200 1.5 223 2.0 224 1.0
 200 201 1.5
 201 202 1.5 225 1.0
 202 203 1.5 226 1.0
 203 204 1.0 223 1.5
 204 205 1.5 222 1.5
 205 206 1.5 227 1.0
 206 207 1.5 228 1.0
 207 208 1.0 221 1.5
 208 209 1.0
 209 210 1.5 220 1.5
 210 211 1.5 229 1.0
 211 212 1.5 230 1.0
 212 213 1.0 219 1.5
 213 214 1.5 218 1.5
 214 215 2.0 231 1.0
 215 216 1.5 232 1.0
 216 217 1.5
 217 218 1.5 233 1.0
 218 234 1.0
 219 220 1.5 235 1.0
 220 221 1.5
 221 222 1.5
 222 236 1.0
 223 237 1.0
 224
 225
 226
 227
 228
 229
 230
 231
 232
 233
 234
 235
 236
 237

