%nprocshared=48
%mem=120GB
%chk=m2_l1_opt.chk
# SP PBE1PBE/def2svp empiricaldispersion=GD3BJ scrf=(solvent=dmso) 

m2_l1

4 1
 Pd                  0.66000000    6.00800000   -2.08700000
 Pd                  0.00200000   -4.63000000    1.40600000
 C                  2.92700000    4.83500000   -0.72500000
 N                  2.68700000    5.76700000   -1.66200000
 C                  3.65500000    5.98400000   -2.56700000
 C                  4.78200000    5.18500000   -2.67200000
 C                  4.95100000    4.09600000   -1.80600000
 C                  5.89900000    2.99800000   -1.97400000
 C                  7.19500000    3.13500000   -2.49900000
 C                  8.05800000    2.05900000   -2.61300000
 C                  7.60900000    0.81200000   -2.19700000
 O                  8.27700000   -0.36500000   -2.18600000
 C                  7.44800000   -1.29500000   -1.65900000
 C                  7.69900000   -2.63900000   -1.41500000
 C                  6.70100000   -3.39200000   -0.82200000
 C                  5.46600000   -2.83300000   -0.45400000
 C                  4.40700000   -3.56400000    0.23900000
 C                  3.62800000   -2.86500000    1.17800000
 C                  2.47900000   -3.42300000    1.67800000
 N                  2.06200000   -4.65800000    1.34600000
 C                  2.85900000   -5.38800000    0.55800000
 C                  4.02600000   -4.88800000   -0.00200000
 C                  5.21200000   -1.48900000   -0.73500000
 C                  6.19400000   -0.73100000   -1.33400000
 C                  6.30000000    0.65500000   -1.69200000
 C                  5.45000000    1.73400000   -1.58500000
 C                  4.03500000    4.02400000   -0.74400000
 H                  2.20800000    4.71300000    0.07600000
 H                  3.49700000    6.80400000   -3.25800000
 H                  5.49400000    5.37600000   -3.45900000
 H                  7.54600000    4.11400000   -2.78600000
 H                  9.05600000    2.18600000   -2.99900000
 H                  8.65100000   -3.07800000   -1.66700000
 H                  6.89700000   -4.42800000   -0.59400000
 H                  3.92500000   -1.88100000    1.50600000
 H                  1.86800000   -2.84900000    2.37500000
 H                  2.53900000   -6.40300000    0.35100000
 H                  4.60600000   -5.51500000   -0.65900000
 H                  4.25300000   -1.04400000   -0.51500000
 H                  4.44100000    1.58300000   -1.23000000
 H                  4.17900000    3.31600000    0.05600000
 C                 -0.42600000    5.11200000    0.39600000
 N                  0.25300000    6.17300000   -0.06900000
 C                  0.98300000    6.87000000    0.81300000
 C                  1.15600000    6.46800000    2.12500000
 C                  0.55500000    5.28800000    2.59500000
 C                  0.86400000    4.67400000    3.88100000
 C                  1.34900000    5.42800000    4.96700000
 C                  1.72700000    4.84200000    6.15800000
 C                  1.62200000    3.46200000    6.26700000
 O                  1.98500000    2.69300000    7.31000000
 C                  1.71300000    1.40900000    6.97500000
 C                  1.95700000    0.27400000    7.73500000
 C                  1.61700000   -0.95200000    7.19200000
 C                  0.99700000   -1.05000000    5.94000000
 C                  0.59500000   -2.32600000    5.33700000
 C                 -0.69400000   -2.46400000    4.80800000
 C                 -0.97200000   -3.49500000    3.93900000
 N                 -0.03700000   -4.36700000    3.52000000
 C                  1.11400000   -4.38300000    4.21100000
 C                  1.45500000   -3.40900000    5.13500000
 C                  0.75000000    0.09600000    5.18400000
 C                  1.14100000    1.32600000    5.68600000
 C                  1.10100000    2.68400000    5.20500000
 C                  0.73000000    3.28800000    4.01900000
 C                 -0.32500000    4.66500000    1.69200000
 H                 -1.07700000    4.58600000   -0.29900000
 H                  1.47100000    7.76400000    0.43900000
 H                  1.79700000    7.05100000    2.76500000
 H                  1.40700000    6.50100000    4.88300000
 H                  2.09800000    5.43100000    6.98000000
 H                  2.39800000    0.35100000    8.71400000
 H                  1.79200000   -1.84900000    7.76400000
 H                 -1.46400000   -1.75400000    5.06400000
 H                 -1.98000000   -3.62400000    3.56900000
 H                  1.80600000   -5.18700000    3.98600000
 H                  2.41400000   -3.45100000    5.62800000
 H                  0.28800000    0.02200000    4.21000000
 H                  0.38900000    2.67400000    3.19900000
 H                 -0.92400000    3.82500000    2.00100000
 C                 -2.25500000    6.75000000   -1.78500000
 N                 -1.37400000    5.97900000   -2.43900000
 C                 -1.82700000    4.82100000   -2.94600000
 C                 -3.09700000    4.35400000   -2.71700000
 C                 -3.96200000    5.05300000   -1.85900000
 C                 -5.10500000    4.32800000   -1.30800000
 C                 -6.35500000    4.87700000   -0.97900000
 C                 -7.36100000    4.12200000   -0.39900000
 C                 -7.10000000    2.78600000   -0.11700000
 O                 -7.88700000    1.87100000    0.50400000
 C                 -7.16700000    0.73100000    0.62000000
 C                 -7.51600000   -0.47000000    1.22600000
 C                 -6.56100000   -1.47100000    1.29100000
 C                 -5.26900000   -1.31200000    0.75600000
 C                 -4.18700000   -2.27600000    0.92800000
 C                 -2.87400000   -1.77600000    1.01100000
 C                 -1.80900000   -2.62900000    1.11900000
 N                 -1.94900000   -3.96400000    1.19400000
 C                 -3.18600000   -4.46300000    1.15400000
 C                 -4.31400000   -3.66700000    1.02000000
 C                 -4.95600000   -0.12900000    0.08500000
 C                 -5.88900000    0.88100000    0.04000000
 C                 -5.84700000    2.22700000   -0.44500000
 C                 -4.86100000    2.98100000   -1.03700000
 C                 -3.53800000    6.33000000   -1.47700000
 H                 -1.90100000    7.72400000   -1.46200000
 H                 -1.14800000    4.21900000   -3.54000000
 H                 -3.41000000    3.43000000   -3.17500000
 H                 -6.55000000    5.91300000   -1.20800000
 H                 -8.31600000    4.56100000   -0.16000000
 H                 -8.49400000   -0.61000000    1.65600000
 H                 -6.80800000   -2.38500000    1.80700000
 H                 -2.69300000   -0.71400000    1.01600000
 H                 -0.79200000   -2.22500000    1.17300000
 H                 -3.27700000   -5.53900000    1.23700000
 H                 -5.28500000   -4.13400000    0.97400000
 H                 -4.01100000    0.00200000   -0.42000000
 H                 -3.89700000    2.53500000   -1.23000000
 H                 -4.18000000    6.97000000   -0.89200000
 C                  1.55000000    4.16800000   -4.02800000
 N                  1.00200000    5.39500000   -4.04600000
 C                  0.25500000    5.71500000   -5.11200000
 C                 -0.11000000    4.79300000   -6.08300000
 C                  0.30700000    3.46300000   -5.96800000
 C                 -0.23600000    2.29900000   -6.66600000
 C                 -0.57600000    2.23500000   -8.02600000
 C                 -1.00600000    1.05900000   -8.61900000
 C                 -1.10400000   -0.07900000   -7.82800000
 O                 -1.43000000   -1.34400000   -8.19000000
 C                 -1.32400000   -2.12000000   -7.08700000
 C                 -1.49700000   -3.49400000   -6.96600000
 C                 -1.26300000   -4.07500000   -5.73100000
 C                 -0.85900000   -3.32400000   -4.61400000
 C                 -0.52400000   -3.89700000   -3.31300000
 C                  0.46100000   -3.26300000   -2.53700000
 C                  0.66900000   -3.63800000   -1.23400000
 N                  0.00000000   -4.64100000   -0.65100000
 C                 -0.85900000   -5.33800000   -1.40800000
 C                 -1.14500000   -5.00400000   -2.72000000
 C                 -0.73400000   -1.93900000   -4.73600000
 C                 -0.95900000   -1.35100000   -5.96100000
 C                 -0.81300000   -0.01200000   -6.44900000
 C                 -0.38900000    1.16200000   -5.87000000
 C                  1.26200000    3.21100000   -4.96800000
 H                  2.24000000    3.92000000   -3.22700000
 H                 -0.10300000    6.73700000   -5.16300000
 H                 -0.76500000    5.09800000   -6.88400000
 H                 -0.45400000    3.11300000   -8.64000000
 H                 -1.23700000    1.02200000   -9.67100000
 H                 -1.78300000   -4.09200000   -7.81500000
 H                 -1.35100000   -5.14700000   -5.64100000
 H                  1.06400000   -2.47500000   -2.95700000
 H                  1.40300000   -3.10500000   -0.63600000
 H                 -1.34300000   -6.18700000   -0.93500000
 H                 -1.87300000   -5.58200000   -3.26600000
 H                 -0.49000000   -1.32100000   -3.88600000
 H                 -0.19800000    1.19300000   -4.80700000
 H                  1.75100000    2.25200000   -4.91300000


