%chk=trans_l1_lc_FINAL.chk
%nprocshared=48
%mem=120GB
# SP PBE1PBE/def2svp empiricaldispersion=GD3BJ scrf=(solvent=dmso)

trans_l1_lc

4 1
 Pd                 6.31770000    0.73880000   -1.00030000
 Pd                -7.61180000    1.31650000    0.28580000
 C                  4.04030000    2.19480000    0.25250000
 N                  4.85730000    2.15700000   -0.81270000
 C                  4.76700000    3.13060000   -1.73390000
 C                  3.88320000    4.18590000   -1.60610000
 C                  3.02710000    4.25350000   -0.49730000
 C                  2.09010000    5.38460000   -0.34650000
 C                  2.54370000    6.69210000   -0.62870000
 C                  1.70230000    7.79550000   -0.55150000
 C                  0.38000000    7.54850000   -0.21060000
 O                 -0.60410000    8.48440000   -0.14610000
 C                 -1.75490000    7.82410000    0.14990000
 C                 -3.01490000    8.40030000    0.24300000
 C                 -4.08250000    7.54260000    0.48620000
 C                 -3.89390000    6.15520000    0.65950000
 C                 -5.03670000    5.24140000    0.83730000
 C                 -4.95110000    4.13450000    1.69240000
 C                 -5.94800000    3.17810000    1.68100000
 N                 -7.02040000    3.25010000    0.86950000
 C                 -7.17180000    4.36270000    0.13520000
 C                 -6.22370000    5.37460000    0.10400000
 C                 -2.60640000    5.60570000    0.58780000
 C                 -1.52840000    6.44470000    0.31470000
 C                 -0.10980000    6.26000000    0.07610000
 C                  0.75820000    5.16760000    0.02680000
 C                  3.11290000    3.21010000    0.43460000
 H                  4.14830000    1.39680000    0.98970000
 H                  5.42830000    3.06050000   -2.59830000
 H                  3.85160000    4.94460000   -2.38890000
 H                  3.59070000    6.84490000   -0.89900000
 H                  2.05670000    8.80510000   -0.76200000
 H                 -3.15850000    9.47370000    0.11470000
 H                 -5.08960000    7.95880000    0.55770000
 H                 -4.09560000    3.99490000    2.35440000
 H                 -5.86750000    2.30130000    2.32020000
 H                 -8.05880000    4.43390000   -0.49320000
 H                 -6.38620000    6.22380000   -0.56130000
 H                 -2.45690000    4.52900000    0.68900000
 H                  0.39440000    4.15740000    0.22680000
 H                  2.48640000    3.19940000    1.32780000
 C                  5.09050000   -1.44490000    0.53950000
 N                  4.94470000   -0.69670000   -0.56800000
 C                  3.86330000   -0.88180000   -1.34300000
 C                  2.89000000   -1.81500000   -1.02930000
 C                  3.01240000   -2.59970000    0.12820000
 C                  1.97180000   -3.56900000    0.51210000
 C                  2.31940000   -4.78150000    1.14590000
 C                  1.36440000   -5.72640000    1.50830000
 C                  0.03950000   -5.41020000    1.24100000
 O                 -1.04610000   -6.18450000    1.53100000
 C                 -2.14480000   -5.48640000    1.13470000
 C                 -3.46870000   -5.88400000    1.26740000
 C                 -4.44420000   -4.98380000    0.84900000
 C                 -4.12250000   -3.71480000    0.31520000
 C                 -5.15920000   -2.71600000   -0.00500000
 C                 -4.81610000   -1.51900000   -0.65570000
 C                 -5.72850000   -0.49210000   -0.74850000
 N                 -6.98740000   -0.58340000   -0.28140000
 C                 -7.38110000   -1.76180000    0.22770000
 C                 -6.50850000   -2.83270000    0.37730000
 C                 -2.77270000   -3.36150000    0.17300000
 C                 -1.78600000   -4.24680000    0.57940000
 C                 -0.34240000   -4.20080000    0.63550000
 C                  0.62700000   -3.27930000    0.25430000
 C                  4.16040000   -2.39960000    0.90960000
 H                  5.97970000   -1.25930000    1.14520000
 H                  3.78770000   -0.26380000   -2.23950000
 H                  2.04460000   -1.94080000   -1.70640000
 H                  3.37180000   -5.00240000    1.33270000
 H                  1.64250000   -6.66990000    1.97880000
 H                 -3.73270000   -6.85510000    1.68710000
 H                 -5.48890000   -5.28080000    0.94990000
 H                 -3.82310000   -1.34560000   -1.06440000
 H                 -5.41420000    0.46290000   -1.17270000
 H                 -8.41300000   -1.82870000    0.57730000
 H                 -6.89030000   -3.73410000    0.85580000
 H                 -2.47290000   -2.38840000   -0.21140000
 H                  0.33490000   -2.33280000   -0.20450000
 H                  4.32090000   -2.95740000    1.83250000
 C                 -9.69710000    3.09590000   -2.94980000
 C                 -9.11880000    2.58150000   -4.13900000
 C                 -8.08250000    1.61730000   -3.98890000
 C                 -7.51890000    0.96160000   -5.12710000
 C                 -7.91970000    1.37630000   -6.38090000
 C                 -8.90560000    2.37930000   -6.53320000
 C                 -9.51940000    2.95590000   -5.44270000
 C                 -6.59040000   -0.16860000   -4.89640000
 C                 -7.05120000   -1.27810000   -4.16760000
 C                 -6.19220000   -2.30710000   -3.81790000
 C                 -4.83540000   -2.25170000   -4.18640000
 C                 -3.94700000   -3.26930000   -3.74070000
 C                 -3.21700000   -4.14110000   -3.30320000
 C                 -2.36040000   -5.14930000   -2.77790000
 C                 -2.89550000   -6.31100000   -2.19270000
 C                 -2.04600000   -7.27330000   -1.65610000
 C                 -0.66610000   -7.10100000   -1.69110000
 C                 -0.11510000   -5.94720000   -2.27910000
 C                  1.29310000   -5.74030000   -2.30860000
 C                  2.49260000   -5.52970000   -2.32330000
 C                  3.88840000   -5.25720000   -2.29430000
 C                  4.45620000   -4.31920000   -3.17570000
 C                  5.80950000   -4.01760000   -3.10620000
 C                  6.63480000   -4.63340000   -2.15250000
 C                  8.06220000   -4.26980000   -1.99660000
 C                  8.44800000   -2.92680000   -1.68260000
 C                  9.81540000   -2.61070000   -1.42950000
 C                 10.11490000   -1.28040000   -1.04610000
 C                  9.11510000   -0.35410000   -0.91960000
 N                  7.81030000   -0.65990000   -1.17850000
 C                  7.50110000   -1.89140000   -1.54920000
 C                 10.79540000   -3.62540000   -1.53390000
 C                 10.41060000   -4.90900000   -1.84540000
 C                  9.05160000   -5.23220000   -2.05960000
 C                  6.07360000   -5.59310000   -1.29760000
 C                  4.72220000   -5.90430000   -1.36490000
 C                 -0.96960000   -4.97810000   -2.82230000
 C                 -4.38280000   -1.16470000   -4.95550000
 C                 -5.25330000   -0.13880000   -5.30930000
 C                 -7.60850000    1.35180000   -2.68900000
 N                 -8.13950000    1.87640000   -1.60410000
 C                 -9.21620000    2.70860000   -1.72740000
 H                -10.53470000    3.79330000   -3.00030000
 H                 -7.50120000    0.89440000   -7.26710000
 H                 -9.20640000    2.67380000   -7.54100000
 H                -10.31010000    3.69760000   -5.57090000
 H                 -8.09810000   -1.32210000   -3.85770000
 H                 -6.55750000   -3.15390000   -3.23410000
 H                 -3.97780000   -6.44230000   -2.15170000
 H                 -2.46740000   -8.16810000   -1.19330000
 H                 -0.00270000   -7.85210000   -1.25920000
 H                  3.82320000   -3.82500000   -3.91470000
 H                  6.23340000   -3.29430000   -3.80680000
 H                 11.14430000   -0.99050000   -0.82990000
 H                  9.32840000    0.66310000   -0.59770000
 H                  6.45220000   -2.10000000   -1.74370000
 H                 11.84350000   -3.37920000   -1.35270000
 H                 11.16090000   -5.69890000   -1.92230000
 H                  8.77730000   -6.26420000   -2.28830000
 H                  6.70400000   -6.08010000   -0.55020000
 H                  4.29480000   -6.64100000   -0.68240000
 H                 -0.54880000   -4.07640000   -3.26910000
 H                 -3.33400000   -1.11870000   -5.25440000
 H                 -4.88210000    0.71620000   -5.87870000
 H                 -6.75890000    0.68520000   -2.56660000
 H                 -9.67350000    3.05550000   -0.79960000
 C                 -9.13210000    0.20470000    3.98120000
 C                 -8.23190000   -0.72730000    4.55210000
 C                 -6.94990000   -0.88290000    3.93780000
 C                 -5.99430000   -1.78800000    4.50220000
 C                 -6.39080000   -2.55400000    5.58640000
 C                 -7.66950000   -2.42370000    6.16610000
 C                 -8.57250000   -1.50750000    5.67990000
 C                 -4.59320000   -1.88230000    4.04240000
 C                 -3.81250000   -0.72760000    3.86950000
 C                 -2.44350000   -0.81890000    3.65960000
 C                 -1.80840000   -2.07370000    3.63210000
 C                 -0.38830000   -2.15220000    3.60980000
 C                  0.82470000   -2.18090000    3.72140000
 C                  2.22990000   -2.16990000    3.94830000
 C                  2.92170000   -3.35580000    4.25880000
 C                  4.28450000   -3.31430000    4.53850000
 C                  4.97770000   -2.10700000    4.51450000
 C                  4.30250000   -0.91250000    4.19810000
 C                  5.01150000    0.32060000    4.11930000
 C                  5.63690000    1.35850000    3.98520000
 C                  6.42070000    2.48670000    3.60930000
 C                  7.82530000    2.39670000    3.61680000
 C                  8.58740000    3.33090000    2.92710000
 C                  7.96830000    4.37090000    2.22030000
 C                  8.67540000    4.96340000    1.05390000
 C                  8.54920000    4.19730000   -0.15000000
 C                  9.17830000    4.60660000   -1.35890000
 C                  8.99600000    3.78200000   -2.50030000
 C                  8.22840000    2.64640000   -2.42260000
 N                  7.62420000    2.27950000   -1.25770000
 C                  7.78360000    3.01610000   -0.17360000
 C                  9.93860000    5.80200000   -1.34940000
 C                 10.04820000    6.53110000   -0.18640000
 C                  9.42100000    6.11830000    1.01720000
 C                  6.58700000    4.55960000    2.36320000
 C                  5.81760000    3.63120000    3.05540000
 C                  2.92940000   -0.95420000    3.91450000
 C                 -2.59750000   -3.23340000    3.73710000
 C                 -3.96680000   -3.13480000    3.93230000
 C                 -6.71690000   -0.18160000    2.73470000
 N                 -7.60800000    0.63810000    2.20260000
 C                 -8.79430000    0.86820000    2.83530000
 H                -10.10460000    0.38210000    4.44250000
 H                 -5.67530000   -3.24470000    6.03660000
 H                 -7.92660000   -3.04120000    7.02920000
 H                 -9.55260000   -1.37830000    6.14300000
 H                 -4.26490000    0.26050000    3.97770000
 H                 -1.84340000    0.08870000    3.57480000
 H                  2.37960000   -4.30220000    4.28040000
 H                  4.81530000   -4.23750000    4.77990000
 H                  6.04650000   -2.07790000    4.73310000
 H                  8.30700000    1.53670000    4.08570000
 H                  9.66690000    3.18770000    2.83900000
 H                  9.46310000    4.04910000   -3.44970000
 H                  8.06640000    1.99420000   -3.28210000
 H                  7.27520000    2.67030000    0.72570000
 H                 10.43020000    6.13470000   -2.26570000
 H                 10.63410000    7.45290000   -0.18330000
 H                  9.53470000    6.72220000    1.91960000
 H                  6.09500000    5.37760000    1.83140000
 H                  4.73210000    3.73790000    3.08830000
 H                  2.39970000   -0.03290000    3.66800000
 H                 -2.12110000   -4.21390000    3.69820000
 H                 -4.56110000   -4.04580000    4.02760000
 H                 -5.78880000   -0.33480000    2.17930000
 H                 -9.46890000    1.58270000    2.36210000

 1 4 1.0 43 1.0 110 1.0 176 1.0
 2 59 1.0 121 1.0 187 1.0
 3 4 1.5 27 1.5 28 1.0
 4 5 1.5
 5 6 2.0 29 1.0
 6 7 1.5 30 1.0
 7 8 1.0 27 1.5
 8 9 1.5 26 1.5
 9 10 1.5 31 1.0
 10 11 1.5 32 1.0
 11 12 1.0 25 1.5
 12 13 1.0
 13 14 1.5 24 1.5
 14 15 1.5 33 1.0
 15 16 1.5 34 1.0
 16 17 1.0 23 1.5
 17 18 1.5 22 1.5
 18 19 2.0 35 1.0
 19 20 1.5 36 1.0
 20 21 1.5
 21 22 1.5 37 1.0
 22 38 1.0
 23 24 1.5 39 1.0
 24 25 1.0
 25 26 1.5
 26 40 1.0
 27 41 1.0
 28
 29
 30
 31
 32
 33
 34
 35
 36
 37
 38
 39
 40
 41
 42 43 1.5 66 2.0 67 1.0
 43 44 1.5
 44 45 2.0 68 1.0
 45 46 1.5 69 1.0
 46 47 1.0 66 1.5
 47 48 1.5 65 1.5
 48 49 1.5 70 1.0
 49 50 1.5 71 1.0
 50 51 1.0 64 1.5
 51 52 1.0
 52 53 1.5 63 1.5
 53 54 1.5 72 1.0
 54 55 1.5 73 1.0
 55 56 1.0 62 1.5
 56 57 1.5 61 1.5
 57 58 2.0 74 1.0
 58 59 1.5 75 1.0
 59 60 1.5
 60 61 1.5 76 1.0
 61 77 1.0
 62 63 1.5 78 1.0
 63 64 1.5
 64 65 1.5
 65 79 1.0
 66 80 1.0
 67
 68
 69
 70
 71
 72
 73
 74
 75
 76
 77
 78
 79
 80
 81 82 1.5 122 2.0 123 1.0
 82 83 1.5 87 1.5
 83 84 1.5 120 1.5
 84 85 2.0 88 1.0
 85 86 1.5 124 1.0
 86 87 2.0 125 1.0
 87 126 1.0
 88 89 1.5 119 1.5
 89 90 2.0 127 1.0
 90 91 1.5 128 1.0
 91 92 1.5 118 1.5
 92 93 3.0
 93 94 1.5
 94 95 1.5 117 1.5
 95 96 1.5 129 1.0
 96 97 1.5 130 1.0
 97 98 1.5 131 1.0
 98 99 1.5 117 1.5
 99 100 3.0
 100 101 1.5
 101 102 1.5 116 1.5
 102 103 1.5 132 1.0
 103 104 1.5 133 1.0
 104 105 1.0 115 1.5
 105 106 1.5 114 2.0
 106 107 1.5 111 1.5
 107 108 1.5 112 1.5
 108 109 2.0 134 1.0
 109 110 1.5 135 1.0
 110 111 2.0
 111 136 1.0
 112 113 2.0 137 1.0
 113 114 1.5 138 1.0
 114 139 1.0
 115 116 1.5 140 1.0
 116 141 1.0
 117 142 1.0
 118 119 1.5 143 1.0
 119 144 1.0
 120 121 2.0 145 1.0
 121 122 1.5
 122 146 1.0
 123
 124
 125
 126
 127
 128
 129
 130
 131
 132
 133
 134
 135
 136
 137
 138
 139
 140
 141
 142
 143
 144
 145
 146
 147 148 1.5 188 2.0 189 1.0
 148 149 1.5 153 1.5
 149 150 1.5 186 1.5
 150 151 2.0 154 1.0
 151 152 1.5 190 1.0
 152 153 2.0 191 1.0
 153 192 1.0
 154 155 1.5 185 1.5
 155 156 1.5 193 1.0
 156 157 1.5 194 1.0
 157 158 1.5 184 1.5
 158 159 3.0
 159 160 1.5
 160 161 1.5 183 1.5
 161 162 1.5 195 1.0
 162 163 1.5 196 1.0
 163 164 1.5 197 1.0
 164 165 1.5 183 1.5
 165 166 3.0
 166 167 1.5
 167 168 1.5 182 1.5
 168 169 1.5 198 1.0
 169 170 1.5 199 1.0
 170 171 1.0 181 1.5
 171 172 1.5 180 2.0
 172 173 1.5 177 1.5
 173 174 1.5 178 1.5
 174 175 2.0 200 1.0
 175 176 1.5 201 1.0
 176 177 2.0
 177 202 1.0
 178 179 2.0 203 1.0
 179 180 1.5 204 1.0
 180 205 1.0
 181 182 1.5 206 1.0
 182 207 1.0
 183 208 1.0
 184 185 1.5 209 1.0
 185 210 1.0
 186 187 2.0 211 1.0
 187 188 1.5
 188 212 1.0
 189
 190
 191
 192
 193
 194
 195
 196
 197
 198
 199
 200
 201
 202
 203
 204
 205
 206
 207
 208
 209
 210
 211
 212

