106
	Energy:     100.7247062
C         -3.89275       -1.98825       -0.76215
C         -3.92113       -1.35912        0.57499
C         -3.45587       -3.30736       -0.95946
C         -3.36730       -3.83708       -2.25822
H         -3.15971       -3.91167       -0.11020
C         -3.72514       -3.03746       -3.36358
C         -4.16768       -1.72024       -3.17158
H         -3.64182       -3.42962       -4.36997
C         -4.25211       -1.20908       -1.86735
C         -4.47933       -0.85656       -4.33753
H         -4.57118       -0.18761       -1.70808
C         -2.85713       -5.21408       -2.44335
H         -4.38025       -1.25122       -5.34549
H         -4.25428       -0.32649        0.64552
H         -2.63321       -5.81610       -1.56538
C         -1.06835        1.90804        0.04686
C         -0.99763        1.15934        1.32611
C         -2.28394        2.01027       -0.64861
C         -2.34615        2.63332       -1.90020
H         -3.18168        1.57367       -0.23360
C         -1.18123        3.17619       -2.46139
C          0.04307        3.08759       -1.77700
H         -1.21720        3.63935       -3.44051
C          0.09264        2.45337       -0.51856
C          1.26751        3.61029       -2.42142
H          1.03642        2.35651        0.00541
C         -3.63400        2.61871       -2.62482
H          1.18627        4.09671       -3.39085
H         -4.48884        2.15315       -2.13998
C         -2.01586       -0.39481        2.87502
C         -3.32493       -1.23450        2.88365
N         -2.02692        0.50233        1.73686
N         -3.46023       -1.95143        1.62477
C         -2.07463       -7.00038       -3.85233
C         -0.65550       -6.89414       -4.46733
N         -2.61505       -5.67337       -3.62314
N          0.25588       -6.21584       -3.54178
C         -4.92307        1.35632       -5.21711
C         -4.95352        2.78413       -4.60633
N         -4.74584        0.39125       -4.15072
N         -3.73212        3.01028       -3.85093
C          4.54143        2.60972       -2.82368
C          3.65823        3.84874       -2.51954
N          3.86877        1.68616       -3.74129
N          2.42520        3.42418       -1.88472
H         -0.04491        1.06430        1.84254
H         -0.06773       -5.23413       -3.38533
H          1.20517       -6.15281       -3.97668
H          3.60781        2.18055       -4.62582
H          3.00010        1.30790       -3.29907
C          5.88422        3.05190       -3.43542
C         -0.11422       -8.30491       -4.77850
C         -5.08888        3.82582       -5.72722
C         -1.86783        0.37103        4.20295
H         -0.70896       -6.31402       -5.41786
C         -1.05788       -9.04860       -5.73159
H         -0.01489       -8.88429       -3.83342
H          0.89146       -8.23079       -5.24632
C         -2.45822       -9.15617       -5.11606
H         -0.65946      -10.06613       -5.93288
H         -1.11600       -8.50031       -6.69784
C         -3.01300       -7.75979       -4.80685
H         -2.40650       -9.75091       -4.17751
H         -3.13693       -9.67984       -5.82292
H         -4.02056       -7.85618       -4.34762
H         -3.11737       -7.19019       -5.75755
H         -2.00144       -7.57151       -2.89662
H          4.75210        2.06933       -1.87257
C          6.61456        4.01581       -2.49173
H          5.70454        3.55937       -4.40944
H          6.52433        2.16212       -3.62077
C          5.74060        5.24313       -2.20225
H          7.57112        4.33855       -2.95585
H          6.84957        3.49366       -1.53797
C          4.40429        4.81291       -1.58134
H          5.54961        5.79432       -3.14951
H          6.27413        5.92424       -1.50532
H          3.45120        4.38128       -3.47788
H          3.77877        5.71176       -1.39108
H          4.59846        4.31120       -0.60702
H         -5.83780        2.89027       -3.93360
C         -6.37374        3.56709       -6.53046
H         -4.20852        3.76871       -6.40524
H         -5.12660        4.84704       -5.28983
C         -6.36419        2.15023       -7.12503
H         -6.46043        4.31459       -7.34785
H         -7.25634        3.68028       -5.86259
C         -6.21276        1.09545       -6.01743
H         -4.04360        1.29255       -5.89936
H         -7.09081        1.14329       -5.33586
H         -6.18329        0.08498       -6.47828
H         -5.51614        2.05833       -7.83905
H         -7.30815        1.97281       -7.68358
H         -1.16005       -1.09957        2.75607
C         -1.86093       -0.61740        5.37958
H         -2.71512        1.08264        4.31925
H         -0.92073        0.95176        4.21044
C         -3.14009       -1.46811        5.38404
H         -1.77972       -0.05901        6.33674
H         -0.97649       -1.28644        5.29231
C         -3.29007       -2.22729        4.05600
H         -4.02221       -0.80683        5.53331
H         -3.10374       -2.19195        6.22619
H         -4.23018       -2.82013        4.07521
H         -2.43698       -2.93077        3.93110
H         -4.20786       -0.56764        3.02893
