90
	Energy:     150.1832616
C         -3.93017       -1.81808       -0.75647
C         -3.98217       -1.27695        0.61671
C         -3.25843       -3.01711       -1.05221
C         -3.13566       -3.45327       -2.38316
H         -2.81739       -3.60008       -0.25287
C         -3.66731       -2.66296       -3.41616
C         -4.31997       -1.45645       -3.13099
H         -3.53667       -2.96313       -4.44488
C         -4.47100       -1.05300       -1.79680
C         -4.73268       -0.57466       -4.24585
H         -4.95143       -0.11159       -1.56680
C         -2.38325       -4.72956       -2.70142
H         -4.45303       -0.85591       -5.25902
H         -4.49774       -0.33265        0.78108
C         -0.73440        1.70998       -0.26400
C         -0.58654        1.01703        1.04172
C         -1.99284        1.79842       -0.88404
C         -2.14198        2.42202       -2.13005
H         -2.86380        1.37278       -0.40087
C         -1.01758        2.96947       -2.76558
C          0.25247        2.88474       -2.16221
H         -1.12544        3.44439       -3.73298
C          0.38485        2.25175       -0.90906
C          1.46848        3.44010       -2.88000
H          1.35922        2.16832       -0.44384
C         -3.48925        2.45756       -2.74343
H         -4.30101        2.00949       -2.18621
C         -1.62413       -0.40927        2.75560
C         -3.02249       -1.07774        2.80240
N         -1.60047        0.39636        1.54089
N         -3.22769       -1.76623        1.54019
C         -2.26635       -6.59890       -3.96043
C         -1.33221       -5.58398       -4.61188
N         -3.24478       -5.77815       -3.26325
N         -1.28200       -4.47313       -3.65094
C         -5.42272        1.57232       -5.06019
C         -5.02845        2.99361       -4.54931
N         -5.26787        0.57730       -4.01747
N         -3.71161        2.98843       -3.90304
C          3.64960        2.73327       -2.53123
C          3.57951        4.24699       -2.42957
N          2.41387        2.35031       -3.19547
N          2.17378        4.48567       -2.10438
H          0.38383        0.97382        1.52722
H          2.58387        2.34195       -4.22866
H          1.13665        3.90591       -3.83729
H          2.04448        4.30829       -1.08109
H         -0.38081       -4.44729       -3.11644
H         -3.90366       -5.37555       -3.96637
H         -1.95357       -5.14727       -1.75859
H          3.60944        2.29508       -1.50934
H          4.56353        2.34644       -3.03414
H         -2.71664       -7.32912       -4.66714
H         -1.71186       -7.17706       -3.18486
H         -3.79061       -0.28135        2.93990
H         -3.12556       -1.78797        3.65077
H         -4.77031        1.30574       -5.92402
H         -6.47174        1.57722       -5.42754
C          4.53263        4.78371       -1.34403
H          4.31115        4.32216       -0.35771
H          4.42521        5.88417       -1.24360
H          5.58726        4.54919       -1.60473
C          3.92906        4.92495       -3.77560
H          3.27766        4.58245       -4.60514
H          4.98037        4.70381       -4.05845
H          3.81195        6.02593       -3.68857
C          0.05935       -6.18255       -4.89518
H          0.52912       -6.54806       -3.95855
H          0.72638       -5.41381       -5.33997
H         -0.02015       -7.03558       -5.60336
C         -1.92424       -5.07216       -5.94274
H         -1.27104       -4.28863       -6.38008
H         -2.93387       -4.63782       -5.82432
H         -2.00831       -5.90570       -6.67385
C         -1.41644        0.47666        3.99574
H         -1.47755       -0.13144        4.92402
H         -2.19552        1.26782        4.04120
H         -0.42192        0.97017        3.96359
C         -0.53392       -1.50348        2.70455
H         -0.65204       -2.14212        1.80326
H         -0.59455       -2.15197        3.60511
H          0.48153       -1.05640        2.67724
C         -6.11316        3.54069       -3.58966
H         -7.09231        3.61100       -4.11106
H         -5.83666        4.55486       -3.22937
H         -6.26269        2.88382       -2.70925
C         -4.94942        3.93767       -5.76144
H         -4.17226        3.59010       -6.47610
H         -4.67898        4.96590       -5.43696
H         -5.92291        3.98146       -6.29638
