90
	Energy:     857.2178123
C         -3.79598       -1.54703       -0.75814
C         -3.99265       -1.13691        0.68441
C         -3.00374       -2.64450       -1.03851
C         -2.69079       -2.95585       -2.37933
H         -2.60484       -3.26291       -0.24761
C         -3.20369       -2.20577       -3.42131
C         -4.02906       -1.12936       -3.18975
H         -2.95335       -2.47646       -4.45758
C         -4.34748       -0.79441       -1.82403
C         -4.46895       -0.29115       -4.34046
H         -4.95359        0.06281       -1.62011
C         -1.87368       -4.10179       -2.58738
H         -3.98765       -0.46362       -5.31231
H         -4.73456       -0.36877        0.88531
H         -1.76682       -4.78730       -1.76236
C         -1.35650        1.62067        0.25689
C         -1.22366        0.91691        1.63259
C         -2.60015        1.94523       -0.34804
C         -2.72907        2.49272       -1.65953
H         -3.49311        1.71435        0.19606
C         -1.52249        2.74755       -2.39795
C         -0.25803        2.42968       -1.81436
H         -1.54780        3.17582       -3.39768
C         -0.18670        1.86674       -0.52127
C          1.00561        2.72308       -2.55605
H          0.79425        1.62389       -0.11248
C         -4.16653        2.71783       -2.22568
H          0.94544        3.21075       -3.53534
H         -4.98527        2.47124       -1.57004
C         -2.10434       -0.28015        3.66182
C         -3.30455       -1.18745        3.04911
N         -2.16079        0.80322        2.59928
N         -3.20838       -1.58598        1.62927
C         -1.23317       -5.81979       -4.04209
C          0.10243       -6.46126       -4.52020
N         -1.50778       -4.43804       -3.79972
N          0.87258       -5.40978       -3.76639
C         -5.43875        1.77354       -5.17912
C         -5.67435        3.06591       -4.32243
N         -5.23220        0.70915       -4.18641
N         -4.41766        3.01094       -3.45841
C          4.64877        2.11883       -2.78196
C          3.37669        3.05364       -2.56101
N          4.10451        1.01425       -3.60016
N          2.15985        2.54100       -1.97407
H         -0.29693        0.35222        1.71984
H          1.33979       -4.64850       -4.32884
H          1.26710       -5.53796       -2.80106
H          3.73238        1.24003       -4.53898
H          3.34113        0.53237       -3.03894
H         -1.88092       -5.88088       -4.96371
H         -1.39055       -6.29643       -3.02834
H         -4.22647       -0.54274        3.14775
H         -3.57967       -2.08139        3.65112
H          3.11570        3.33984       -3.62451
H          3.57458        4.03236       -2.07225
C          5.82621        1.34056       -2.04926
H          6.41517        0.88166       -2.90586
H          5.59989        0.48090       -1.39891
H          6.64066        1.93349       -1.56509
C          5.56139        3.28708       -3.31392
H          5.11271        4.16503       -3.82936
H          6.47961        3.00369       -3.84549
H          5.87065        3.80831       -2.35372
C          1.18921       -7.53170       -4.24176
H          1.08159       -7.86339       -3.16385
H          2.27698       -7.40002       -4.23781
H          1.28702       -8.06547       -5.21889
C         -0.89192       -7.88150       -4.46370
H         -1.98285       -7.86917       -4.76762
H         -1.01479       -8.33214       -3.43522
H         -0.65678       -8.74036       -5.13418
C         -5.66185        4.52532       -4.85536
H         -5.58290        4.60192       -5.95082
H         -5.25343        5.20282       -4.06390
H         -6.61906        5.08229       -4.73361
H         -4.52477        1.87405       -5.79656
H         -6.25400        1.46314       -5.87688
C         -7.26203        2.90044       -4.15434
H         -7.72083        1.89755       -4.03073
H         -7.66335        3.12337       -5.20450
H         -7.82640        3.66170       -3.57725
C         -2.55168       -0.39241        5.26312
H         -1.82585       -0.15692        6.10813
H         -2.52554       -1.49764        5.54420
H         -3.46678        0.05049        5.67088
C         -0.59207       -0.16925        4.13903
H          0.35892        0.07577        3.64537
H         -0.28131       -1.02297        4.77067
H         -0.61620        0.83242        4.69038
