138
	Energy:     270.4196325
C         -3.51644       -1.75292       -0.85653
C         -3.76303       -1.25171        0.50949
C         -2.74134       -2.89701       -1.09291
C         -2.46269       -3.30919       -2.40778
H         -2.35170       -3.46367       -0.25583
C         -2.94005       -2.54009       -3.48814
C         -3.72082       -1.39636       -3.25740
H         -2.70132       -2.82681       -4.50439
C         -4.02180       -1.02372       -1.93855
C         -4.15258       -0.54508       -4.39135
H         -4.60227       -0.12954       -1.74813
C         -1.63539       -4.55912       -2.64091
H         -3.72409       -0.71846       -5.37555
H         -4.43195       -0.40250        0.63257
C         -0.93154        1.66605       -0.08148
C         -0.82708        0.95329        1.21450
C         -2.18961        1.91094       -0.65271
C         -2.29824        2.46872       -1.93127
H         -3.08936        1.61565       -0.12728
C         -1.13866        2.82502       -2.63307
C          0.12962        2.62736       -2.05988
H         -1.22192        3.25736       -3.62293
C          0.22695        2.03129       -0.78619
C          1.36955        3.03944       -2.82925
H          1.19985        1.84142       -0.35080
C         -3.64018        2.60987       -2.52806
H         -4.50469        2.38503       -1.90706
C         -1.90782       -0.21447        3.04590
C         -3.20846       -1.08503        2.84110
N         -1.88949        0.68926        1.90123
H         -1.01433       -0.87821        2.97111
C         -1.77612        0.57563        4.39019
N         -3.08141       -1.68655        1.51732
H         -4.07290       -0.37915        2.82706
C         -3.57002       -2.18331        3.89561
H         -2.77259        0.97994        4.66785
C         -0.83906        1.79539        4.27056
C         -1.17981       -0.31567        5.50719
H         -2.64104       -2.71181        4.19799
C         -4.50794       -3.25876        3.30363
C         -4.31844       -1.59131        5.11550
H         -1.72351       -1.25334        5.69149
H         -1.14237        0.24504        6.46562
H         -0.14330       -0.61748        5.24183
H         -1.22815        2.52560        3.53053
H          0.18435        1.48384        3.96899
H         -0.77481        2.32905        5.24334
H         -3.78892       -0.78831        5.64556
H         -4.52941       -2.39100        5.85746
H         -5.28857       -1.15453        4.79324
H         -4.02467       -3.79229        2.45820
H         -5.45604       -2.80330        2.94356
H         -4.74877       -4.02713        4.06964
C         -1.31112       -6.27761       -4.10189
C         -0.49264       -5.06414       -4.59839
N         -2.37881       -5.60004       -3.37334
H         -0.72489       -6.84668       -3.33932
C         -1.83864       -7.31930       -5.13484
N         -0.39312       -4.25719       -3.37947
H         -1.11484       -4.46700       -5.30484
C          0.88126       -5.29722       -5.30181
H         -2.12637       -6.78914       -6.06827
C         -3.09982       -8.04310       -4.62176
C         -0.78004       -8.41551       -5.40187
H          1.41383       -6.12538       -4.78600
C          1.78528       -4.04952       -5.21590
C          0.69578       -5.59545       -6.80827
H          0.20564       -8.03516       -5.70972
H         -1.14273       -9.11580       -6.18451
H         -0.59406       -9.00007       -4.47473
H         -3.93301       -7.32900       -4.45662
H         -2.89239       -8.57437       -3.66774
H         -3.45206       -8.78211       -5.37356
H          0.02203       -6.43361       -7.03389
H          1.67871       -5.81280       -7.27822
H          0.25394       -4.71359       -7.32065
H          2.02673       -3.79171       -4.16468
H          1.29599       -3.17246       -5.69205
H          2.75317       -4.24053       -5.72741
C         -5.22521        1.47489       -5.19526
C         -5.11782        2.83733       -4.40722
N         -4.95076        0.45163       -4.19311
H         -4.41420        1.43341       -5.96008
C         -6.56862        1.18197       -5.94164
N         -3.79520        2.83925       -3.79020
H         -5.88470        2.80462       -3.59688
C         -5.35660        4.18358       -5.16815
H         -7.41340        1.53758       -5.31422
C         -6.80384       -0.32702       -6.16074
C         -6.58023        1.82749       -7.34901
H         -4.87157        4.12404       -6.16561
C         -4.70275        5.37815       -4.43854
C         -6.86288        4.52579       -5.27986
H         -6.38868        2.91002       -7.36370
H         -7.56028        1.65269       -7.84223
H         -5.78760        1.37424       -7.98313
H         -6.87495       -0.86410       -5.19178
H         -5.98375       -0.77463       -6.76293
H         -7.76608       -0.49438       -6.69101
H         -7.48280        3.75812       -5.76235
H         -6.99792        5.46712       -5.85450
H         -7.29686        4.67415       -4.26721
H         -3.60124        5.25441       -4.37245
H         -5.11236        5.48756       -3.41085
H         -4.88475        6.32087       -4.99832
C          3.53421        2.32029       -2.39472
C          3.48039        3.85228       -2.58789
N          2.28594        1.89976       -3.03932
H          3.40993        2.08430       -1.31207
C          4.78520        1.52327       -2.87896
N          2.11145        4.12313       -2.16223
H          3.52618        4.09980       -3.67701
C          4.53216        4.75946       -1.88134
H          5.12624        1.94271       -3.85015
C          4.45439        0.03468       -3.11263
C          5.91361        1.55593       -1.82088
H          4.76296        4.33555       -0.88043
C          3.98962        6.18509       -1.65408
C          5.80452        4.90728       -2.74967
H          6.22204        2.56166       -1.50420
H          6.81349        1.02991       -2.20575
H          5.58251        1.04214       -0.89258
H          3.68952       -0.09361       -3.90519
H          4.07990       -0.43868       -2.17918
H          5.36106       -0.51175       -3.45118
H          6.26497        3.95526       -3.05430
H          6.56884        5.50684       -2.21072
H          5.56014        5.43266       -3.69857
H          3.09976        6.17435       -0.99103
H          3.70794        6.66091       -2.61857
H          4.75754        6.81496       -1.15571
H          0.14156        0.57641        1.53412
H          2.45340        1.82746       -4.07191
H          1.05897        3.43560       -3.82604
H          2.06603        4.00550       -1.12099
H          0.40143       -4.62548       -2.80275
H         -3.01897       -5.16020       -4.07739
H         -1.36030       -4.99753       -1.65138
