%chk=trans_l2_la_FINAL.chk
%nprocshared=48
%mem=120GB
# SP PBE1PBE/def2svp empiricaldispersion=GD3BJ scrf=(solvent=dmso)

trans_l2_la

4 1
 Pd                -5.65730000   -2.14060000    1.33070000
 Pd                 6.25270000   -2.82140000   -1.16420000
 C                 -0.47450000    1.46770000   -4.29350000
 C                  0.79470000    0.95850000   -4.02800000
 C                  1.01410000    0.18350000   -2.88150000
 C                 -0.05640000   -0.04950000   -2.01260000
 C                 -1.33340000    0.45230000   -2.27110000
 C                 -1.53980000    1.20770000   -3.43470000
 C                 -2.41900000    0.12480000   -1.32820000
 C                 -2.17340000    0.00310000    0.04840000
 C                 -3.16410000   -0.47960000    0.88840000
 N                 -4.37650000   -0.81580000    0.42740000
 C                 -4.66480000   -0.60720000   -0.87030000
 C                 -3.72230000   -0.14080000   -1.76940000
 C                  2.31970000   -0.42050000   -2.56100000
 C                  3.24180000   -0.82250000   -3.53680000
 C                  4.41110000   -1.47050000   -3.15960000
 N                  4.69520000   -1.71950000   -1.87470000
 C                  3.84130000   -1.30890000   -0.92210000
 C                  2.66410000   -0.66050000   -1.22330000
 H                 -0.63590000    2.08110000   -5.18190000
 H                  1.61930000    1.18080000   -4.70830000
 H                  0.08920000   -0.69280000   -1.14400000
 H                 -2.52620000    1.61940000   -3.65870000
 H                 -1.20320000    0.26140000    0.47390000
 H                 -2.98230000   -0.62290000    1.95520000
 H                 -5.67600000   -0.85940000   -1.20030000
 H                 -3.99740000   -0.04850000   -2.82070000
 H                  3.04490000   -0.67390000   -4.59900000
 H                  5.13420000   -1.81460000   -3.90120000
 H                  4.11910000   -1.50500000    0.11520000
 H                  2.02290000   -0.33960000   -0.40380000
 C                 -0.47480000   -7.80480000   -2.36740000
 C                  0.83600000   -7.36700000   -2.19730000
 C                  1.10520000   -6.24450000   -1.40230000
 C                  0.04170000   -5.57690000   -0.78460000
 C                 -1.28110000   -5.98970000   -0.98120000
 C                 -1.53140000   -7.11490000   -1.77870000
 C                 -2.38150000   -5.20140000   -0.39290000
 C                 -2.26020000   -4.61950000    0.87670000
 C                 -3.27180000   -3.80880000    1.36020000
 N                 -4.37830000   -3.55370000    0.64560000
 C                 -4.53780000   -4.13310000   -0.55310000
 C                 -3.57030000   -4.96310000   -1.09650000
 C                  2.46930000   -5.69590000   -1.27060000
 C                  2.93500000   -5.16860000   -0.05780000
 C                  4.15010000   -4.50570000   -0.02010000
 N                  4.90230000   -4.34260000   -1.11920000
 C                  4.51790000   -4.91630000   -2.26950000
 C                  3.32340000   -5.60890000   -2.37830000
 H                 -0.67620000   -8.69140000   -2.97170000
 H                  1.65610000   -7.90850000   -2.67390000
 H                  0.24170000   -4.67410000   -0.20300000
 H                 -2.55610000   -7.46270000   -1.92680000
 H                 -1.38160000   -4.79610000    1.49810000
 H                 -3.19970000   -3.33890000    2.34280000
 H                 -5.45630000   -3.90160000   -1.09660000
 H                 -3.73250000   -5.38120000   -2.09050000
 H                  2.34890000   -5.25350000    0.85800000
 H                  4.52580000   -4.06210000    0.90430000
 H                  5.16850000   -4.77220000   -3.13430000
 H                  3.03280000   -6.01220000   -3.34910000
 C                 -8.98140000   -0.09520000    3.12730000
 C                 -8.03920000   -1.01720000    2.76930000
 N                 -6.90800000   -0.67170000    2.08440000
 C                 -6.65110000    0.61390000    1.89100000
 C                 -7.49750000    1.65470000    2.33480000
 C                 -7.15260000    3.04270000    2.21870000
 C                 -5.77680000    3.51000000    1.95060000
 C                 -5.55120000    4.69330000    1.22740000
 C                 -4.27770000    5.22530000    1.10040000
 C                 -3.16740000    4.57800000    1.67470000
 C                 -1.86240000    5.13010000    1.55380000
 C                 -0.74680000    5.60870000    1.44240000
 C                  0.54900000    6.17450000    1.27640000
 C                  1.69300000    5.45350000    1.65650000
 C                  2.94380000    6.03060000    1.45370000
 C                  4.31620000    5.62490000    1.68530000
 C                  4.93890000    4.48690000    2.18890000
 C                  6.34260000    4.44180000    2.21790000
 C                  6.99770000    3.23800000    2.60410000
 C                  7.52940000    2.16700000    2.84240000
 C                  8.10830000    0.87760000    3.01480000
 C                  9.42490000    0.61700000    2.59370000
 C                  9.93410000   -0.67590000    2.63410000
 C                  9.14860000   -1.74000000    3.09510000
 C                  9.60610000   -3.14090000    2.90450000
 C                 10.56720000   -3.75460000    3.67800000
 C                 10.98290000   -5.08080000    3.40360000
 C                 10.46310000   -5.79520000    2.34780000
 C                  9.49030000   -5.19740000    1.51080000
 C                  8.92720000   -5.82980000    0.37240000
 C                  8.01940000   -5.16530000   -0.41290000
 N                  7.62650000   -3.89420000   -0.12180000
 C                  8.11130000   -3.28540000    0.94640000
 C                  9.05730000   -3.87250000    1.80500000
 C                  7.85920000   -1.47050000    3.57560000
 C                  7.34370000   -0.18130000    3.53990000
 C                  7.09900000    5.55600000    1.78090000
 C                  6.48900000    6.70120000    1.28210000
 C                  5.10120000    6.70290000    1.23320000
 O                  4.32790000    7.71390000    0.75320000
 C                  3.03340000    7.31290000    0.87870000
 C                  1.92080000    8.04900000    0.49430000
 C                  0.67820000    7.46250000    0.70140000
 C                 -3.38310000    3.38030000    2.38000000
 C                 -4.66500000    2.86770000    2.52460000
 C                 -8.14530000    3.97290000    2.48640000
 C                 -9.43140000    3.59200000    2.92030000
 C                 -9.73370000    2.27010000    3.15380000
 C                 -8.76450000    1.28050000    2.87580000
 H                 -9.89920000   -0.42690000    3.61520000
 H                 -8.17390000   -2.06910000    3.00500000
 H                 -5.74710000    0.86040000    1.33780000
 H                 -6.38900000    5.20140000    0.74540000
 H                 -4.12710000    6.15190000    0.54390000
 H                  1.59390000    4.45720000    2.08950000
 H                  4.35770000    3.62960000    2.52940000
 H                 10.03050000    1.43120000    2.19200000
 H                 10.93890000   -0.87340000    2.25380000
 H                 11.01250000   -3.21370000    4.51550000
 H                 11.73850000   -5.53890000    4.04560000
 H                 10.79880000   -6.81320000    2.14050000
 H                  9.22440000   -6.84560000    0.10660000
 H                  7.58040000   -5.62060000   -1.30100000
 H                  7.76030000   -2.27220000    1.14000000
 H                  7.23940000   -2.29010000    3.94740000
 H                  6.32840000    0.01220000    3.89060000
 H                  8.18810000    5.50110000    1.82380000
 H                  7.07040000    7.55620000    0.93490000
 H                  2.02100000    9.04000000    0.04990000
 H                 -0.22620000    7.99880000    0.41020000
 H                 -2.53760000    2.86890000    2.84380000
 H                 -4.80430000    1.97760000    3.14110000
 H                 -7.91040000    5.03660000    2.41880000
 H                -10.17400000    4.36720000    3.12090000
 H                -10.70500000    1.97270000    3.55370000
 C                 -8.07530000   -5.65930000    2.20200000
 C                 -7.04940000   -4.74820000    2.29210000
 N                 -7.06970000   -3.59310000    1.57320000
 C                 -8.08430000   -3.34340000    0.76480000
 C                 -9.18790000   -4.19790000    0.61730000
 C                -10.27780000   -3.82790000   -0.23440000
 C                -10.11700000   -2.49120000   -0.87050000
 C                 -9.28700000   -2.35200000   -1.99110000
 C                 -8.71180000   -1.12340000   -2.29590000
 C                 -8.95930000   -0.00010000   -1.48430000
 C                 -8.19960000    1.19570000   -1.65710000
 C                 -7.48650000    2.17870000   -1.76150000
 C                 -6.67510000    3.34310000   -1.91890000
 C                 -5.27640000    3.25750000   -1.82410000
 C                 -4.51840000    4.41070000   -2.01910000
 C                 -3.10510000    4.74300000   -1.99010000
 C                 -1.92320000    4.05410000   -1.71940000
 C                 -0.70440000    4.74270000   -1.80990000
 C                  0.54850000    4.11550000   -1.54400000
 C                  1.67980000    3.71200000   -1.33320000
 C                  3.05340000    3.36570000   -1.17550000
 C                  3.50940000    2.45100000   -0.21090000
 C                  4.86450000    2.15650000   -0.09680000
 C                  5.80950000    2.76390000   -0.93790000
 C                  7.26520000    2.49800000   -0.85990000
 C                  8.14330000    3.56430000   -0.78400000
 C                  9.54170000    3.37880000   -0.75830000
 C                 10.09070000    2.12120000   -0.85530000
 C                  9.23830000    1.00020000   -0.97640000
 C                  9.72790000   -0.31500000   -1.16620000
 C                  8.86000000   -1.36440000   -1.29290000
 N                  7.50780000   -1.19350000   -1.21040000
 C                  7.01910000    0.02750000   -1.06250000
 C                  7.82200000    1.18060000   -0.94910000
 C                  5.35200000    3.69410000   -1.88490000
 C                  4.00330000    3.99030000   -2.00600000
 C                 -0.68820000    6.11650000   -2.15610000
 C                 -1.85830000    6.82520000   -2.39080000
 C                 -3.04740000    6.11610000   -2.29630000
 O                 -4.28930000    6.64150000   -2.47740000
 C                 -5.17370000    5.62300000   -2.30880000
 C                 -6.55420000    5.74250000   -2.38850000
 C                 -7.29690000    4.58590000   -2.18820000
 C                 -9.90200000   -0.11190000   -0.44660000
 C                -10.46890000   -1.34520000   -0.14430000
 C                -11.33910000   -4.69580000   -0.33960000
 C                -11.33940000   -5.91990000    0.37970000
 C                -10.30210000   -6.27860000    1.21190000
 C                 -9.19050000   -5.41190000    1.35800000
 H                 -8.02970000   -6.57550000    2.79300000
 H                 -6.18520000   -4.90800000    2.93780000
 H                 -8.04200000   -2.41010000    0.20470000
 H                 -9.01070000   -3.23600000   -2.57070000
 H                 -8.01310000   -1.03980000   -3.13070000
 H                 -4.80250000    2.30350000   -1.59390000
 H                 -1.93560000    3.00450000   -1.43150000
 H                  2.79340000    1.98590000    0.46890000
 H                  5.19680000    1.47440000    0.68930000
 H                  7.74040000    4.57640000   -0.72270000
 H                 10.19030000    4.25310000   -0.66990000
 H                 11.17240000    1.97430000   -0.85540000
 H                 10.80220000   -0.49570000   -1.22690000
 H                  9.21590000   -2.37930000   -1.46320000
 H                  5.93750000    0.12960000   -1.03550000
 H                  6.06920000    4.17690000   -2.55210000
 H                  3.66710000    4.70880000   -2.75550000
 H                  0.27340000    6.62800000   -2.21730000
 H                 -1.84840000    7.88780000   -2.63660000
 H                 -7.02870000    6.70100000   -2.60220000
 H                 -8.38580000    4.62720000   -2.24690000
 H                -10.12940000    0.75970000    0.17030000
 H                -11.11790000   -1.43940000    0.72940000
 H                -12.19080000   -4.44360000   -0.97440000
 H                -12.19570000   -6.58930000    0.27180000
 H                -10.32870000   -7.21980000    1.76430000

 1 12 1.0 42 1.0 65 1.0 140 1.0
 2 18 1.0 48 1.0 94 1.0 169 1.0
 3 4 1.5 8 1.5 21 1.0
 4 5 1.5 22 1.0
 5 6 1.5 15 1.0
 6 7 1.5 23 1.0
 7 8 1.5 9 1.0
 8 24 1.0
 9 10 1.5 14 1.5
 10 11 2.0 25 1.0
 11 12 1.5 26 1.0
 12 13 1.5
 13 14 2.0 27 1.0
 14 28 1.0
 15 16 1.5 20 1.5
 16 17 1.5 29 1.0
 17 18 1.5 30 1.0
 18 19 1.5
 19 20 2.0 31 1.0
 20 32 1.0
 21
 22
 23
 24
 25
 26
 27
 28
 29
 30
 31
 32
 33 34 1.5 38 1.5 51 1.0
 34 35 1.5 52 1.0
 35 36 1.5 45 1.0
 36 37 1.5 53 1.0
 37 38 1.5 39 1.0
 38 54 1.0
 39 40 1.5 44 1.5
 40 41 2.0 55 1.0
 41 42 1.5 56 1.0
 42 43 1.5
 43 44 2.0 57 1.0
 44 58 1.0
 45 46 1.5 50 1.5
 46 47 2.0 59 1.0
 47 48 1.5 60 1.0
 48 49 1.5
 49 50 2.0 61 1.0
 50 62 1.0
 51
 52
 53
 54
 55
 56
 57
 58
 59
 60
 61
 62
 63 64 2.0 111 1.5 112 1.0
 64 65 1.5 113 1.0
 65 66 1.5
 66 67 1.5 114 1.0
 67 68 1.5 111 1.5
 68 69 1.0 108 1.5
 69 70 1.5 107 1.5
 70 71 2.0 115 1.0
 71 72 1.5 116 1.0
 72 73 1.5 106 1.5
 73 74 3.0
 74 75 1.5
 75 76 1.5 105 1.5
 76 77 1.5 117 1.0
 77 78 1.0 103 1.5
 78 79 1.5 101 1.5
 79 80 1.5 118 1.0
 80 81 1.5 99 1.5
 81 82 3.0
 82 83 1.5
 83 84 1.5 98 1.5
 84 85 1.5 119 1.0
 85 86 1.5 120 1.0
 86 87 1.0 97 1.5
 87 88 2.0 96 1.5
 88 89 1.5 121 1.0
 89 90 2.0 122 1.0
 90 91 1.5 123 1.0
 91 92 1.5 96 1.5
 92 93 2.0 124 1.0
 93 94 1.5 125 1.0
 94 95 2.0
 95 96 1.5 126 1.0
 96
 97 98 1.5 127 1.0
 98 128 1.0
 99 100 1.5 129 1.0
 100 101 1.5 130 1.0
 101 102 1.0
 102 103 1.0
 103 104 1.5
 104 105 1.5 131 1.0
 105 132 1.0
 106 107 1.5 133 1.0
 107 134 1.0
 108 109 1.5 135 1.0
 109 110 2.0 136 1.0
 110 111 1.5 137 1.0
 111
 112
 113
 114
 115
 116
 117
 118
 119
 120
 121
 122
 123
 124
 125
 126
 127
 128
 129
 130
 131
 132
 133
 134
 135
 136
 137
 138 139 2.0 186 1.5 187 1.0
 139 140 1.5 188 1.0
 140 141 2.0
 141 142 1.5 189 1.0
 142 143 1.5 186 1.5
 143 144 1.0 183 2.0
 144 145 1.5 182 1.5
 145 146 1.5 190 1.0
 146 147 1.5 191 1.0
 147 148 1.5 181 1.5
 148 149 3.0
 149 150 1.5
 150 151 1.5 180 1.5
 151 152 1.5 192 1.0
 152 153 1.0 178 1.5
 153 154 1.5 176 1.5
 154 155 1.5 193 1.0
 155 156 1.5 174 1.5
 156 157 3.0
 157 158 1.5
 158 159 1.5 173 1.5
 159 160 1.5 194 1.0
 160 161 1.5 195 1.0
 161 162 1.0 172 1.5
 162 163 2.0 171 1.5
 163 164 1.5 196 1.0
 164 165 2.0 197 1.0
 165 166 1.5 198 1.0
 166 167 1.5 171 1.5
 167 168 2.0 199 1.0
 168 169 1.5 200 1.0
 169 170 1.5
 170 171 1.5 201 1.0
 171
 172 173 1.5 202 1.0
 173 203 1.0
 174 175 1.5 204 1.0
 175 176 1.5 205 1.0
 176 177 1.0
 177 178 1.0
 178 179 1.5
 179 180 1.5 206 1.0
 180 207 1.0
 181 182 1.5 208 1.0
 182 209 1.0
 183 184 1.5 210 1.0
 184 185 2.0 211 1.0
 185 186 1.5 212 1.0
 186
 187
 188
 189
 190
 191
 192
 193
 194
 195
 196
 197
 198
 199
 200
 201
 202
 203
 204
 205
 206
 207
 208
 209
 210
 211
 212

