230
 energy: -363.275138503636 gnorm: 0.000411667822 xtb: 6.4.0 (d4b70c2)
Fe       12.09663884064643   15.09897675373533   10.82466355742411
Fe        7.18451673997457    3.98378779556085   12.70807949868725
O        12.99605404184522   10.45712518026857   13.19131825577345
O        10.66511217721771    8.67953891440641   15.48813047013081
N        10.71462881460775   15.98764566338818    9.79371022610374
N        11.91813924801913   13.75644086484996    9.45076343219000
N         8.73446254538057    3.59365380376636   11.59417778480740
N         7.77457355742278    2.40941686258032   13.65806421560242
C         9.84979172616487   17.00056341072936   10.22225147403009
C         8.46758863383995   16.80857858443171   10.12078850972169
C         7.59198801819104   17.78248709686083   10.55904196243606
C         8.07512121259117   18.96547492047864   11.09656829855977
C         9.44328208701574   19.15919431224798   11.21011334903620
C        10.32530228979155   18.18205185863651   10.78980790914854
C        10.46018389315966   15.39095684583565    8.67714498869786
C        11.13481175827725   14.15430959015672    8.42680260630052
C        10.92227934501795   13.34260194994890    7.30918940943079
C        11.47089276967427   12.07861781103020    7.28252543104481
C        12.23807179832962   11.64229218178785    8.36920285301600
C        12.45258028880763   12.54661702826677    9.41012025631716
C        14.29649079361075   11.88577835112356   14.66021742668588
C        14.87814716372651   12.10546209524692   15.88802999337069
C        14.80554845629062   11.15447681729027   16.91994870288861
C        15.38052937175591   11.39003800288659   18.18740555428110
C        15.33112557286954   10.43262005439336   19.16204720275276
C        14.70359121302456    9.20277289343145   18.91089137370544
C        14.13314459980762    8.94603697272399   17.69296558841012
C        14.16681987332792    9.91124510499715   16.66661251998752
C        13.58597245965688    9.67766119894570   15.38792543516315
C        13.62279055591172   10.65642533212380   14.42006820486405
C        13.80892142140037    9.85072869666999   12.20600263495488
C        13.07164272699570    8.31313972295807   15.08381662557785
C        14.07509641979250    7.36260743361033   14.71621123867886
C        15.44247100671325    7.70716097558864   14.64000242042413
C        16.38556210802828    6.78123919220164   14.28325840919047
C        16.01802765000716    5.46319870606049   13.97719368390233
C        14.70388747908877    5.09499893789001   14.03957548987596
C        13.71115339680181    6.02625231359657   14.40988332606842
C        12.35849618871100    5.65897822448435   14.50608259307329
C        11.40189111264970    6.55839758077043   14.89990939318458
C        11.75397589867201    7.91792818458332   15.17776595670502
C        10.78028880775644   10.03063530256281   15.86785637638494
C         9.23987340910151    4.29140542052146   10.58849937011583
C        10.21014253957768    3.79026509800834    9.71910058802072
C        10.63620409215612    2.46919616467231    9.91633209076581
C        10.14588301327175    1.75172991967869   10.98487502929845
C         9.20519901479642    2.34978541113690   11.82619130804761
C         8.70852075863273    1.77062428416000   13.03764810850828
C         7.47540972290991    2.04555350441652   14.97597739639989
C         8.52120133568537    1.85021022180642   15.88379173137223
C         8.25285126433843    1.51618306624959   17.19678491534540
C         6.94319457789466    1.35986992356249   17.62352342497308
C         5.90135901053696    1.55488748165956   16.72973570938377
C         6.16084687663324    1.90660411549118   15.41863263132359
O        10.72244847484742    9.46653735985889    7.95266846533470
O        11.08019775091686    6.47488508219472   10.14332034358823
N        13.59964300254263   15.75041511106617    9.80030886399125
N        13.48961015092745   14.17364999895142   11.82175597260521
N         8.15091507602108    4.97991512817476   14.04633557987022
N         5.67047769530779    4.39528299089388   13.84774634727245
C        13.59057047003097   16.26904274809913    8.50019187277588
C        12.79394650402651   17.35801785902986    8.14985744480525
C        12.80670922137810   17.84194739677152    6.85536999375093
C        13.59250607842683   17.23591783287305    5.88713198966491
C        14.37140932516569   16.13914971527709    6.22205035057532
C        14.37786929399272   15.66040099327423    7.51755159783359
C        14.73556381927467   15.46306247844796   10.34084611088432
C        14.71289728910096   14.66343209390581   11.52802778636021
C        15.83768494616381   14.33552506376120   12.28804166345866
C        15.69904440580237   13.45555917040996   13.33833167877941
C        14.44558581163360   12.88336988013052   13.59743321793105
C        13.37151756699673   13.29812621119242   12.80822243979893
C        12.83396714093801   10.30349650493961    8.43301068514485
C        14.16413596354713   10.17181622202406    8.73692260952433
C        14.78932023092191    8.91364348614209    8.75045561892187
C        16.16642586920476    8.77723730141760    9.02400353610251
C        16.76366061268913    7.54864790490601    9.00501106274833
C        16.00022113027061    6.40948546467306    8.71286128838306
C        14.66062490713887    6.51176590827085    8.45008481802182
C        14.00988783840769    7.76505313918513    8.45822532926093
C        12.61164511614115    7.89687091539929    8.18712983122076
C        12.03143430743894    9.14759031554718    8.16958028212825
C         9.76753263247662    8.49784792766109    7.58815416744818
C        11.91079906527339    6.61609929697495    7.89092789093901
C        12.03590117436302    6.06425843726415    6.58444123433774
C        12.66400891500942    6.76196850222506    5.53325838251568
C        12.76876915461174    6.20144291460260    4.28849661062347
C        12.25163761263095    4.92184815094815    4.03444252436233
C        11.63656822330794    4.21898233917433    5.03280756764857
C        11.51553788602632    4.76772897971319    6.32769238013324
C        10.92374709643640    4.05065061704538    7.38138679517820
C        10.78270895988320    4.59583448939944    8.63711484958704
C        11.26818800140318    5.91000161004462    8.88329982956043
C        12.13820900812910    6.25298809335847   11.05464678377175
C         9.41117970647470    5.38168991696514   14.01797936884903
C        10.01094918006848    6.11561383178232   15.04207949986802
C         9.24527459863429    6.37404020172524   16.18520162725047
C         7.93558950147327    5.94720740914742   16.22966893858605
C         7.39952910362262    5.27633779107777   15.12715610115899
C         6.01418592819494    4.96242135169456   14.95570667382344
C         4.31601273297043    4.37457986068291   13.49793853757263
C         3.71586794387604    3.24258662307947   12.94809491652854
C         2.37881872569075    3.26068837308135   12.59979543068128
C         1.62510877224834    4.41195388296313   12.76925424538349
C         2.21911239080966    5.55023810818915   13.29199112139382
C         3.55050561508586    5.53457095723962   13.65855438397240
N        12.19178222965337   16.38967697470930   12.26208720290395
N        10.63028125921481   14.41690791528442   11.87039306242566
N         6.64804294656067    5.55191816196370   11.73055999931972
N         6.19457506842775    3.08187438152386   11.31137884433362
C        13.28854745904715   17.18354309003016   12.61343076418838
C        13.91172752118390   18.02830307690392   11.69477255748366
C        15.00556115080412   18.78355497842788   12.07294114072445
C        15.51178260197583   18.69080873866132   13.36042779614179
C        14.91324220250640   17.83632970969806   14.27362539977028
C        13.80838422067655   17.09225543503813   13.90954321788631
C        11.20381401833883   16.30248142478498   13.09078934976513
C        10.26233563254238   15.24828535952751   12.86868124743762
C         9.12303991668110   15.00843662204384   13.64135273288059
C         8.37336667213421   13.87571171076059   13.40165154668963
C         8.77350280022305   12.99661928779494   12.38877550701650
C         9.90618100312331   13.33206388012117   11.65044205576816
C         6.98804243806099    6.80963878564845   11.95827672192685
C         6.44539630052382    7.89295311970120   11.27095827339635
C         5.46855908257729    7.62719284371816   10.30473725847781
C         5.10683973154285    6.31882338948083   10.05920299630045
C         5.72697885132746    5.29337811559814   10.77787313584332
C         5.55213903011646    3.89368965685226   10.53768624892602
C         6.30649456470310    1.74180078195318   10.92719009308115
C         6.62872484644806    1.43679092814355    9.59987521728794
C         6.78117030718582    0.12340439729452    9.20151662790138
C         6.60526329614937   -0.90763769490614   10.11167176885737
C         6.29101830492601   -0.61372895240956   11.42980008104774
C         6.15498010988516    0.69858423547249   11.84094057428797
C         6.94634284575182    9.24043515527640   11.55999742750538
C         7.27465250014444   10.10832674633176   10.52006812873362
C         7.85643942950109   11.33033516369065   10.78779909874199
C         8.08483662821460   11.73409629596977   12.10301734728504
C         7.70042833599394   10.89125419058743   13.14450712754515
C         7.15825715429999    9.65151082792339   12.87566573693702
H         8.09100422073099   15.87693443163221    9.72258381632114
H         6.52882899873496   17.62092052405681   10.47454472982491
H         7.39047920636469   19.73107131456798   11.42407343782125
H         9.82570595692582   20.08000867302389   11.62144935449811
H        11.38579429430049   18.34756784660053   10.87247611401652
H         9.70864597169163   15.75260502431916    7.98252868417776
H        10.32376693675608   13.70817123526100    6.49039165056032
H        11.31384458215200   11.42944075852358    6.43694886187569
H        13.04951233661281   12.25915324983946   10.26258808897371
H        15.38583586779504   13.03883869639775   16.08191798720629
H        15.86349106747254   12.33767528372083   18.37057978705085
H        15.77450816756387   10.61442921615510   20.12799051624605
H        14.67528063149048    8.45577738152556   19.68863962794852
H        13.65483474470978    7.99595167806941   17.50601297328685
H        14.66882564657783   10.48369201755482   11.95848750481076
H        14.17478142400445    8.87265164431408   12.52945787872195
H        13.18035131572414    9.72689099411953   11.32565539861582
H        15.75199611250608    8.71305906676820   14.87878143978636
H        17.42626622783257    7.06262153329593   14.24465520180672
H        16.77709057336440    4.74712873874971   13.70572719030938
H        14.40420849872746    4.08128402348138   13.81935078737101
H        12.08274049143324    4.63180707729231   14.31581340687529
H        11.10855704264182   10.65324220619720   15.03194185300169
H        11.45648030352300   10.16187317696920   16.71472493991244
H         9.77407278299003   10.32387807458297   16.16786936083646
H         8.86289619149456    5.29454743494326   10.45966421620254
H        11.36887799445311    2.03571301926069    9.25367555246892
H        10.47809294230063    0.74545411871823   11.18217554257935
H         9.15879690417814    0.86611549011419   13.43437823361926
H         9.54046164528105    1.99150589208242   15.55358975868483
H         9.06856901740422    1.36941342870456   17.88712671186055
H         6.73589463588346    1.08436530813766   18.64494946470477
H         4.88090195161105    1.42365205226061   17.05352618236977
H         5.34533157827391    2.04023641362637   14.72813438403769
H        12.19284744352314   17.84596820187807    8.89825960047361
H        12.20716335398379   18.70236258083340    6.60309324913260
H        13.60044831224931   17.61803756693779    4.87911611568631
H        14.98257342465284   15.66006847699089    5.47342901216984
H        14.96980364545736   14.79422668567720    7.77687008474229
H        15.68255190477471   15.75030062557585    9.89477241589556
H        16.79425199267757   14.76805574191609   12.04356150644078
H        16.55141562655546   13.17824015365015   13.93860292442965
H        12.38290176836609   12.90360118848124   12.98724127521985
H        14.76265206147380   11.05300829815496    8.91743792280305
H        16.74123937505975    9.66658998533936    9.23503475119419
H        17.81903568006719    7.44752566210873    9.20142929876117
H        16.47993940516223    5.44358849487685    8.68712470833098
H        14.09682235401767    5.62068225724406    8.22048742701523
H        10.06917383288074    7.93973071156615    6.69973630353226
H         9.56725291543943    7.80579076147083    8.40977395709360
H         8.86494253256622    9.06562829934918    7.36122730435029
H        13.06721649167283    7.74594066831023    5.72213096590563
H        13.25367280206595    6.74302849116084    3.49146947997319
H        12.34578761392938    4.49812089109840    3.04733834955678
H        11.23890199024922    3.23293754446585    4.84728365079760
H        10.55259047097928    3.05584918081498    7.18347567353688
H        11.87026363943153    6.78189581352019   11.96782376516295
H        13.08673507430608    6.64281574570780   10.67608406405038
H        12.25757753432140    5.18485485082052   11.26940860552866
H         9.96725212865166    5.14733993428829   13.12273764510804
H         9.67959628964774    6.90148290134296   17.01840287933497
H         7.31751661544240    6.13302472165090   17.09323531837997
H         5.28810269768185    5.26972410343150   15.70164394159148
H         4.28899339342124    2.33999632836694   12.82283264670985
H         1.92069246693427    2.36949324014273   12.20076938221006
H         0.58218781260557    4.42171217411507   12.49661141079915
H         1.64113866831437    6.45190739298924   13.42050205536446
H         4.01981118976256    6.42837312613576   14.04488737169096
H        13.51989546166590   18.11842983120731   10.69543623022460
H        15.46108190799846   19.45391219567405   11.36127316117464
H        16.36516994479170   19.28210016650416   13.65080614374940
H        15.30404777009031   17.75580457671942   15.27579378448188
H        13.35441165991050   16.40841643708443   14.61289886875749
H        11.11336490518801   16.94476033422273   13.96057340948714
H         8.84556476825358   15.70674265930311   14.41419911483936
H         7.48431848396311   13.67316184493645   13.97788162970964
H        10.25437047922319   12.66934873462740   10.87290317436932
H         7.75620770213917    6.97531593233541   12.69815350906071
H         4.99878186640674    8.43701126571313    9.76901622899284
H         4.35844495403512    6.07698313147670    9.32208549478232
H         4.95814164397710    3.55137730019027    9.69674920083901
H         6.78868964991347    2.24252066077819    8.89730738891546
H         7.03018404572238   -0.09743709842746    8.17546724375570
H         6.71004706326906   -1.93294824042952    9.79547909665427
H         6.14377217901374   -1.41198125612032   12.14007900008081
H         5.89861399382306    0.91402625310513   12.86472139246653
H         7.10666690189923    9.80614150867135    9.49786601715175
H         8.11993377032630   11.98566662147153    9.97115552729846
H         7.86242748510478   11.19580661407940   14.16700859635169
H         6.87941252492120    9.00278989061818   13.69247021263681
