230
 energy: -363.270976330338 gnorm: 0.000364304458 xtb: 6.4.0 (d4b70c2)
Fe       12.38839310598170   14.72765415900752    9.55787242386312
Fe        7.35376246778498    3.94032359713131   12.73838380672552
O        11.91054110276073   10.51108787714169   12.62726077093368
O        10.65113101271954    7.43297392305488   14.51230468235223
N        11.28769509367081   16.27588557911797    9.86403095516194
N        12.01591042028094   14.37186176947744   11.45495306098522
N         9.26232454827002    3.95183610859445   13.08856104683883
N         7.68622496528346    2.08682685522320   12.32830367182732
C        11.03045005567944   17.35247045192814    8.99926055285499
C        10.30095190957973   17.16782490691528    7.82670542140564
C        10.06789407921538   18.23768521057584    6.98262231254483
C        10.56066486137090   19.49602748750323    7.29156552321506
C        11.26609113845617   19.68814639055699    8.46890406172602
C        11.48997814603787   18.62852794564579    9.32889139796657
C        10.83082388146026   16.35037835223938   11.06221146277046
C        11.15900325878012   15.28552454330451   11.96084946095672
C        10.65006310755388   15.18934873625431   13.25771670354830
C        11.01932152825467   14.11991594745029   14.04138054633461
C        11.90743691629482   13.16251368021703   13.53064083318251
C        12.37743601737575   13.35430870728845   12.22728220934460
C        12.32433482940483   12.05032171510580   14.39457874937916
C        12.65600409221095   12.31819116411167   15.70307973282717
C        13.06028633054083   11.30126277710153   16.58329221951789
C        13.41917834991701   11.58201886035141   17.91930864116065
C        13.81264321092925   10.57812562923502   18.75935537672096
C        13.86106695850092    9.25461000434537   18.29639598918610
C        13.51871905115511    8.95179316429694   17.00560408353558
C        13.11380046708138    9.96345501444464   16.11080109871742
C        12.75092059187712    9.67995239713682   14.76018280315925
C        12.37337535258600   10.70849467058060   13.92216644765386
C        12.79746148373822    9.89633685448888   11.72221559591877
C        12.95273428046756    8.27636268576383   14.29130162115293
C        14.31378179852358    7.96747401923247   13.96732600085893
C        15.34577649180021    8.92669534289378   14.04038893271511
C        16.63939950854155    8.59373822065543   13.73838683412426
C        16.97339066706883    7.29167394147589   13.33982972773072
C        15.99547493476539    6.34326685458894   13.23887855379902
C        14.65551666205861    6.65882527772285   13.54709154630164
C        13.64498505076519    5.68914889502306   13.48410947444154
C        12.33974830125236    5.96146775314719   13.82590507654161
C        11.98258575415019    7.29439728315160   14.22389383436599
C        10.14356633406654    8.58343327219466   15.15066385158613
C        10.06368021173277    4.97748083526086   13.32858242679371
C        11.38934672086969    4.84471282500984   13.75000404017578
C        11.82513767559844    3.53823567465514   14.03417260677439
C        11.01113794034190    2.46350991773000   13.75443255323602
C         9.73875163564965    2.69677429979050   13.22949058731704
C         8.85696804244173    1.69669333725701   12.70972069661384
C         6.91929562079912    1.23225687066632   11.52896671011856
C         7.51827248023366    0.60251165223966   10.43317366330484
C         6.77618297156514   -0.22330069063640    9.61160423894941
C         5.43300628256741   -0.44505676300237    9.87360083627401
C         4.83265899528540    0.17666167380172   10.95771598273653
C         5.56383066212524    1.01835743810057   11.77443926313497
O        11.96003327300958    9.76640634711607    7.79941086723110
O        10.13741037307031    6.86962803317257    9.69912004497134
N        14.05078757482574   15.67099725106308    9.91643977915014
N        13.58883469732504   13.21335106344338    9.25723681583030
N         7.46961271964257    4.27819052449749   10.81519630224204
N         5.43883812970777    3.95509229955683   12.37323083858706
C        14.27898227017804   16.94989374693645   10.44123891863122
C        13.76606624377284   17.27750588232025   11.69710542462413
C        13.99934967958815   18.52727913297748   12.24050820976679
C        14.73254735936161   19.47174034084968   11.53811203104916
C        15.26243967592561   19.14495013707990   10.29958231921976
C        15.05482921698365   17.88974751352472    9.75954891505011
C        15.06047066996972   15.01382659150966    9.45983832152108
C        14.84911013835507   13.65551981489150    9.06565831340718
C        15.85608374855299   12.80924384526121    8.59555250310919
C        15.57508991516389   11.47394805404386    8.41560386174509
C        14.29603191265190   10.98235498541027    8.72366384924796
C        13.33091415136002   11.92372172725177    9.08856765285651
C        14.07909153720896    9.52951676039388    8.75895522941423
C        15.09426958994982    8.77289143365581    9.29543043342012
C        15.01389771798592    7.37592668501701    9.38886091243479
C        16.07798616542284    6.61420334969354    9.91496566282130
C        15.99986822380003    5.25119939718609    9.95993601918211
C        14.84359264380369    4.60645325184738    9.49922535253113
C        13.79415171682771    5.32357680222417    8.98976623961418
C        13.84980155642642    6.73072439385021    8.90401495567336
C        12.78033839070645    7.50830779454775    8.35097947369602
C        12.89048304878186    8.88552218656234    8.28296566697653
C        10.87113721909899    9.32203796614893    7.01995873068621
C        11.66991374026153    6.67780995267489    7.79246811318932
C        11.90511270481358    6.12289747102673    6.49640745056371
C        13.03584190867513    6.46971341591054    5.72850191263677
C        13.23100561162031    5.93324691437951    4.48354853106778
C        12.30988682016869    5.02539521906720    3.94087404032708
C        11.20312240953940    4.66708739823901    4.65837188639721
C        10.97475497733715    5.20442210197320    5.94336775751623
C         9.85251323824827    4.83535524869893    6.70241618940526
C         9.63325086451709    5.35032639086575    7.95826779781066
C        10.54804574144215    6.30129453933314    8.50275432528302
C        11.07015172846281    6.98619459663873   10.74843509142600
C         8.52398416491963    4.61127055845119   10.08684686930448
C         8.46190886329761    4.90793772587752    8.72213611981561
C         7.22190569708158    4.74330849952455    8.08925499021051
C         6.12316457424450    4.37402270699879    8.83241712366971
C         6.26685651700029    4.18875640264193   10.20994539157263
C         5.16965855647487    4.03739176398872   11.11377774521130
C         4.39160391305704    4.14657257774756   13.28366350494468
C         4.21804195367387    3.32603694821847   14.39739852994288
C         3.17595644553275    3.55404137629672   15.27604629174779
C         2.30733692147228    4.61580276533927   15.07508398115210
C         2.48667079402428    5.45195090641341   13.98400829177726
C         3.51496131779033    5.21994271567263   13.09170748471981
N        12.53268870255238   15.03291377830774    7.64986629184928
N        10.85796686979363   13.67733561203471    9.01502164988442
N         7.11917134745687    5.78592918926806   13.18100095327432
N         7.15124206165550    3.72647716316641   14.64598538950014
C        13.57858314849276   15.63160981443598    6.92753937674825
C        14.37668438184384   14.83758048627035    6.10204946442622
C        15.39614547253780   15.41089011292771    5.36608842862020
C        15.60795927208223   16.77992304503167    5.41888828230491
C        14.80258577643159   17.57101213744716    6.22301633852777
C        13.79940883961019   17.00343066244289    6.98942686368200
C        11.61339266014347   14.45192996992478    6.96318325349182
C        10.62217343586391   13.71768652821652    7.68810513301063
C         9.53449851542277   13.06015474380369    7.10947025391527
C         8.71747884435129   12.28371947453264    7.90328421208229
C         9.02278161935092   12.14930048874968    9.26379067359222
C        10.09137442389819   12.89731270648794    9.75858737310036
C         7.30170317967687    6.83536713616744   12.40125154501249
C         6.97072719582611    8.13922577621760   12.76736244276499
C         6.37172331482568    8.32210250598020   14.02108803184330
C         6.21609608652431    7.23701288925980   14.85879228825096
C         6.63298927986029    5.97566535882865   14.42598147391335
C         6.72728087865978    4.79780999322750   15.23257381966250
C         7.58317930856607    2.65806051484838   15.43832669204230
C         8.44906637677174    2.91446732351136   16.50687089999436
C         8.92213499937118    1.87784754827053   17.28723817702459
C         8.53193123517150    0.57329651817866   17.02672142919742
C         7.67514934657627    0.31102893082858   15.96858375939784
C         7.21291039914225    1.34011756019340   15.17025385612951
C         7.33050515296765    9.23155562410330   11.86365054292184
C         7.35510850446552    9.03268682921120   10.48145147611695
C         7.85130259816967   10.00310336963825    9.63972774298814
C         8.34056849827219   11.20684284723616   10.14957311236889
C         8.24285360663547   11.43620899518214   11.52374019828477
C         7.74567744932683   10.46516454886048   12.36647748107330
H         9.88144738843454   16.19869674913227    7.60825933795733
H         9.48859997301369   18.09136156563976    6.08465399060672
H        10.38117140636605   20.32504063608135    6.62643799423858
H        11.63567661874423   20.66802255959896    8.72634748707699
H        12.04294258880199   18.77132023726656   10.24445768843028
H        10.21358305640663   17.17873269942561   11.39765259972898
H         9.97368204376837   15.94488343736698   13.62384595681121
H        10.62434993758420   14.00957206393298   15.03898682568087
H        13.08554113652803   12.66831335299083   11.79095923882997
H        12.65215334505191   13.33610266113025   16.06324789879523
H        13.37712972709632   12.60395546236551   18.26363920380518
H        14.08938453741954   10.79537687540670   19.77853485268329
H        14.17518642586274    8.47101707094888   18.96798936095630
H        13.56356518956143    7.92886762576540   16.66259603273244
H        13.03235442430170    8.86781574105677   12.00108268533704
H        13.73804467598625   10.45245039288872   11.64173940982075
H        12.28323555785917    9.90486712101633   10.76435178464354
H        15.11939228248285    9.93340944367140   14.35644248464186
H        17.41667511464530    9.33795470728765   13.81940157557682
H        18.00145217643191    7.04597425867358   13.12597646855386
H        16.23168850811373    5.33298094480741   12.94332534625295
H        13.91755192499611    4.70270109733925   13.14131507952495
H        10.15437844055297    9.44895965616319   14.48326062836712
H        10.68834500376614    8.81574388400875   16.06690853851217
H         9.11171334471645    8.33423350337341   15.40176366852733
H         9.64332257860712    5.95418045298557   13.16100532854355
H        12.79839431637852    3.37430723946718   14.46816817856865
H        11.34075653050286    1.45287148225367   13.93289341007332
H         9.20560172328784    0.67810907392664   12.57226401658983
H         8.56071399180237    0.79231143652256   10.22080802944999
H         7.24936866550212   -0.70204183921629    8.76872865306111
H         4.85886841873247   -1.10121686388360    9.23957238077015
H         3.79114886692553   -0.00240177909816   11.17363701754177
H         5.09368736446132    1.48253581868958   12.62481651357776
H        13.23774498337192   16.52948064661538   12.26445684905346
H        13.61451914413866   18.76323857287083   13.22050383523967
H        14.90269249170047   20.44898841933601   11.96030759980289
H        15.85110398679388   19.86713582724084    9.75657821694066
H        15.47069585128269   17.63823713563697    8.79681968886229
H        16.06766792878879   15.42006868852413    9.46487199990160
H        16.83573890042615   13.20718861929143    8.38625312064176
H        16.33446372235945   10.80518864546234    8.04248299342634
H        12.31534779687597   11.61387941830148    9.27480061136355
H        15.98162962475343    9.25618506526771    9.67545452807388
H        16.95975247687005    7.13048406501941   10.26163312626944
H        16.82453974704276    4.66596604129946   10.33451890016835
H        14.78872138046801    3.52915609179933    9.53486726853882
H        12.92191214498962    4.79962880187701    8.62997384750368
H        11.19781109935121    8.70509634350930    6.18136296223672
H        10.14581738211570    8.77063674117761    7.62321179265025
H        10.40813563904396   10.23134782303114    6.63636486864982
H        13.75767639337925    7.16510357903546    6.13021685553740
H        14.10325512580306    6.20716033978541    3.91086915504068
H        12.48349754205158    4.61288175190063    2.96000240627484
H        10.48639925131697    3.96883363071777    4.25415527770665
H         9.17992864134838    4.09419800218913    6.29782571852343
H        11.43378606206502    6.00369172968881   11.06930272387095
H        11.92880940441020    7.59429822230717   10.46971431369191
H        10.53630436300843    7.46859416583063   11.56558632380456
H         9.46328069163149    4.64747313295239   10.61555557312707
H         7.12547370772180    4.93658060264192    7.03248527751502
H         5.15378533786637    4.25793019152531    8.37535868830836
H         4.15130060516525    4.07747577804168   10.73977184797878
H         4.87855288398548    2.49100876228568   14.55787426018407
H         3.03667158827929    2.89461967491419   16.11811937479717
H         1.49524827233631    4.78902988185093   15.76258324417883
H         1.81826598939329    6.28310488669970   13.82282887447878
H         3.66822960926653    5.88326125273858   12.25197180894074
H        14.19586600700694   13.77241952762766    6.05849270197945
H        16.01445689814346   14.79084634663066    4.73630957202310
H        16.39016704625199   17.22852571697138    4.82803930082167
H        14.94939331658735   18.63944395395146    6.24973604707088
H        13.16095661615067   17.61565051819322    7.60411664000910
H        11.58953997348350   14.48825509659898    5.87818194030781
H         9.35027939159881   13.16351892795588    6.05186386144798
H         7.85872896618128   11.78748338598493    7.48013004240929
H        10.35387221930388   12.81605950542068   10.80067256485176
H         7.77086097999761    6.64320463169087   11.44867234629927
H         6.03784052869058    9.29993412892303   14.33014497778935
H         5.78473908820740    7.34888317279284   15.84047993765614
H         6.53760613951816    4.84298098411524   16.29977315496737
H         8.76861404364028    3.92999144612118   16.69323801061053
H         9.59130415821427    2.08942143555092   18.10636251503378
H         8.89030621669349   -0.23318798858332   17.64588356260445
H         7.35907956561737   -0.70060908871907   15.76838304118180
H         6.53684065500039    1.12504423632667   14.35955914791896
H         6.97996962302691    8.11386951608244   10.05810157936867
H         7.89463248496519    9.80816746454564    8.57965994798967
H         8.54906055834953   12.38411174837048   11.93886631593554
H         7.71415930648358   10.65151324565511   13.42887651954797
