242
 energy: -387.657690054647 gnorm: 0.000323710645 xtb: 6.4.0 (d4b70c2)
Zn        5.44190388839287    5.52831307596366   39.17965204548054
O         4.35722788680744    4.17066144993231   34.48691160111868
H         4.85762306768352    3.57673638682249   33.90647061470204
N         4.75032560245684    7.29333759927085   40.06439843673395
N         3.80252217624757    5.98881065282842   37.87626168292699
C         5.24905014326596    7.91572298185344   41.20593887338565
C         5.47467897673789    7.13893316952483   42.34409010436015
H         5.23630029647413    6.08694891096402   42.32170063546886
C         5.93710789051997    7.73045160735785   43.50317622319949
H         6.08063966675221    7.12866767935243   44.38668091071204
C         6.21544164235586    9.08909688594358   43.53340513384995
H         6.58380966430035    9.54656797424628   44.43763617329528
C         6.02344480407106    9.85970793532273   42.39566681249526
H         6.25291626719208   10.91365175890582   42.41256937041159
C         5.53354975936255    9.28458311523882   41.23964865939272
H         5.41304051295999    9.88142180169510   40.34711570832314
C         3.89235550643327    7.88134031627159   39.31798755700568
H         3.49326082678580    8.86528221422287   39.56075500690232
C         3.38725712188057    7.24073872866456   38.12468679553813
C         2.51656441220971    7.89885233122402   37.25199389639250
H         2.17117951277711    8.89408463449102   37.48412815321786
C         2.13441920688944    7.27625901905682   36.08159378091067
H         1.50659598434120    7.79675527316282   35.37673779552303
C         2.59350523978002    5.98425514280115   35.80210914931040
C         3.39974093546928    5.38235127996601   36.77630600672003
H         3.72730228380607    4.36349265210861   36.64588510120701
C         2.24004307986762    5.30089127993381   34.55784600834919
C         1.02271691806312    5.54244349188692   33.95854430303251
H         0.31982078488294    6.21567014437766   34.42415965534310
C         0.61998466160207    4.88493697009604   32.78521744883432
C        -0.65589065508046    5.09877628067270   32.21936200305337
H        -1.31791116982462    5.80881134680349   32.69084096303049
C        -1.05500797240586    4.39778498710510   31.11587723732870
H        -2.03845361482932    4.54802852724327   30.69892902564927
C        -0.19320179012618    3.45523540259477   30.53108806383358
H        -0.53298817607548    2.88642630149047   29.67924111233560
C         1.05949517541483    3.24225740204907   31.04059677898341
H         1.71031625169553    2.50514276018697   30.59363747314824
C         1.50083800714687    3.95182728385922   32.17643724556468
C         2.77659574195250    3.73615461048386   32.76299330518998
C         3.12882213674739    4.38169827500832   33.93173206115173
O         7.16907995758106    5.12946959560826   34.50199178151136
H         7.54510043600657    5.81003155503265   33.91928703923178
N         4.31422688163645    4.02746362235621   40.17305019392936
N         5.92303312277397    3.82150004298651   37.97746416849599
C         3.64323534047715    4.09150517411132   41.39394100935184
C         2.82050826227109    5.18625042843630   41.66749838323872
H         2.67179105498551    5.93641913693836   40.90663913002622
C         2.15943342772803    5.27070197159592   42.87692281704385
H         1.50947934094885    6.10878046575221   43.07354802675186
C         2.32651773490974    4.28320984250686   43.83702045741234
H         1.81858219520514    4.35943059198957   44.78491738647892
C         3.14733214133718    3.19666502967114   43.57413807607772
H         3.28181910551228    2.42863120711008   44.31937539557212
C         3.79297621973989    3.08957258552622   42.35798347457244
H         4.45236054289530    2.25586752045125   42.16775776112056
C         4.37492990651545    2.91594397978235   39.54082835026011
H         3.85299677749955    2.02674653048897   39.89255173241716
C         5.12007819371435    2.79898464596765   38.30876852230490
C         4.99918375930252    1.67601761293852   37.48662699293143
H         4.35898466408609    0.85949042461654   37.78140228824594
C         5.67759924128784    1.64122063870093   36.28655247991016
H         5.54967674115097    0.80073534384442   35.62301050206606
C         6.51117701536469    2.70866427091023   35.93246431123576
C         6.60792299063720    3.75898694267499   36.85231210665037
H         7.28342351250305    4.57615472993648   36.66063652137942
C         7.26222596608815    2.71581228762529   34.67526800263882
C         7.68355990692834    1.52799980957856   34.11218564493860
H         7.46232193487478    0.59388538425077   34.60452370866895
C         8.46603622859294    1.48410714249232   32.94770697160762
C         8.93447875716339    0.26106522324497   32.41839777181682
H         8.65003389494961   -0.65814707869172   32.90735303060585
C         9.75546476267876    0.24458577273677   31.32584003604441
H        10.12682535266201   -0.68990603232219   30.93550625688165
C        10.13990877481391    1.44954614463533   30.71394366847070
H        10.80935460979442    1.41970204970393   29.86781760520645
C         9.68563001674853    2.65061102195794   31.18885322544691
H         9.98798337994194    3.57540715733730   30.72016939920714
C         8.83662699509513    2.69929452417808   32.31206220536535
C         8.36970243335194    3.91697947098101   32.86084373900535
C         7.61095819197130    3.92313812114195   34.00973048673416
O         6.90316598730667    4.91920997921205   30.80103018594176
H         6.23763719141743    5.43054100267942   30.31258785084075
N         5.52234312456161    7.34118974487611   24.77415288260886
N         6.79363086176332    6.65114954169831   27.10209512754571
C         5.05868081917225    7.65260779865875   23.49731619770759
C         3.80469944381173    7.19018043350064   23.09566936660867
H         3.19382806000465    6.65516032964408   23.80608424749635
C         3.33186700621546    7.48069589260889   21.83146340916771
H         2.35245301079840    7.14187600186216   21.53197828109882
C         4.10757610556746    8.21553712708133   20.94630124051380
H         3.73850975791844    8.43279348283357   19.95677160656934
C         5.35740990587990    8.67225454734618   21.33735984812141
H         5.96427724420817    9.24068770618801   20.65038326427398
C         5.83104655269072    8.40464314118494   22.60668235288976
H         6.82061579160830    8.72639553036358   22.89624275898631
C         6.12903553540490    8.23594821303145   25.45773818161101
H         6.22887822622972    9.25978786484072   25.09982512633833
C         6.68589263614593    7.94128783989097   26.75817831995058
C         7.08893850839662    8.96357602180968   27.62340245900240
H         6.98928722269988    9.99421989043951   27.32193341404566
C         7.58586853850624    8.63995691258566   28.86781195893335
H         7.85733453820429    9.42145510391702   29.56073355216582
C         7.72863323373500    7.29236110113560   29.22121491445947
C         7.32281786973560    6.34684493769591   28.27181587349307
H         7.46417147377085    5.29511432909666   28.47044573858298
C         8.34240878686435    6.88062028894554   30.48883086323496
C         9.36652921924445    7.64113645151215   31.01554943920911
H         9.66675049393457    8.55076806135524   30.51860365179895
C        10.09833343115504    7.23827980784024   32.14342073678597
C        11.15105213240292    8.02189674553989   32.66546561312379
H        11.36916481677885    8.97180247042446   32.20173435050538
C        11.89120829766561    7.57487395482403   33.72414182487675
H        12.70318440309174    8.16946867736940   34.11185239900500
C        11.61383600607286    6.32433309317625   34.30181117224505
H        12.22336705734093    5.97453484378334   35.12046712731212
C        10.59305246005800    5.54609447751279   33.82713229797280
H        10.39079079247371    4.58069804564639   34.26700822367215
C         9.80461573006744    5.98397218525927   32.74231898806782
C         8.72371598734530    5.22068364109207   32.23060528429931
C         7.97986607123096    5.67339841061805   31.15610907615335
O         4.17204247816913    4.35768975024694   30.41744625819402
H         3.58014082147244    4.85899344953117   30.99914357271196
N         7.29331773823271    4.75021178037564   24.83938002415973
N         5.98887618161655    3.80247302548896   27.02759098132945
C         7.91564746040309    5.24897812021737   23.69783969116878
C         7.13883566981357    5.47463148380914   22.55970712201046
H         6.08686940466627    5.23616687839857   22.58206684231671
C         7.73030482112255    5.93722505233224   21.40066052145909
H         7.12850207718495    6.08078227864605   20.51717165356225
C         9.08892641626896    6.21567491930367   21.37043960287290
H         9.54635881999427    6.58415385252153   20.46623362845442
C         9.85957151061272    6.02360920830759   22.50814526797211
H        10.91349797126877    6.25315651268911   22.49125768617323
C         9.28449196354924    5.53358170501025   23.66412586757177
H         9.88134716247197    5.41307053226920   24.55664690215857
C         7.88144812665951    3.89244920482995   25.58592747373083
H         8.86547069106445    3.49349666586582   25.34325834781739
C         7.24088325394000    3.38737082251410   26.77926107758165
C         7.89913535880161    2.51689389046458   27.65206782802479
H         8.89450130364855    2.17180271002158   27.42006825810273
C         7.27650380952254    2.13459041115900   28.82240264687027
H         7.79700294752028    1.50686233379452   29.52734647585656
C         5.98437964699111    2.59341037198451   29.10169416440921
C         5.38242290150483    3.39962748840579   28.12752516393953
H         4.36353557461436    3.72710499334915   28.25799597979528
C         5.30085278499774    2.23979588237978   30.34581899657268
C         5.54189350270670    1.02221385289569   30.94477619216566
H         6.21485049796421    0.31918848599481   30.47895330578019
C         4.88433747826987    0.61956719212046   32.11811375168332
C         5.09830758665417   -0.65615466726201   32.68425051823462
H         5.80831127231118   -1.31826326179542   32.21285092233379
C         4.39756170915666   -1.05500296360992   33.78799310508849
H         4.54813783825693   -2.03822902163617   34.20533423184401
C         3.45470618615451   -0.19329098267909   34.37242717388863
H         2.88594333107131   -0.53295592267085   35.22435212241432
C         3.24147034710525    1.05920354047460   33.86254342443670
H         2.50409301366322    1.70994124917315   34.30918894351334
C         3.95125882053720    1.50052426201284   32.72681595373466
C         3.73604277116738    2.77647736454372   32.14051530988345
C         4.38211033513144    3.12889046770229   30.97212880443359
Zn        5.52819308534108    5.44177080169906   25.72413217827045
O         5.12949670783121    7.16929122498687   30.40176311631589
H         5.81012348381249    7.54550758266507   30.98424369727169
N         4.02728438785307    4.31430643670739   24.73077274119168
N         3.82151887735694    5.92291055393541   26.92646131907397
C         4.09129381500417    3.64335076226821   23.50986777564943
C         5.18601161250098    2.82056899708154   23.23638459422641
H         5.93616684944016    2.67192288374333   23.99727864587013
C         5.27044456604982    2.15938372147241   22.02702428966850
H         6.10852021711805    1.50940550847936   21.83044892467083
C         4.28294835447383    2.32641092951731   21.06692552551421
H         4.35914804269931    1.81839111655767   20.11907227226325
C         3.19643317363540    3.14728622481562   21.32973317768818
H         2.42843409341939    3.28178392058114   20.58445623632928
C         3.08937323747550    3.79306978241816   22.54581795001873
H         2.25570225346445    4.45251598651912   22.73597399933291
C         2.91575274711702    4.37508434852738   25.36296944541190
H         2.02649506558808    3.85331549253039   25.01116432548621
C         2.79886686904224    5.12015868111097   26.59506611882281
C         1.67587337925381    4.99936017037825   27.41717649247792
H         0.85927800212442    4.35926307450299   27.12236840445772
C         1.64113075797777    5.67772207517428   28.61727953730095
H         0.80059496354731    5.54991187370086   29.28076743450823
C         2.70867897424781    6.51112125740055   28.97144932039621
C         3.75908064356674    6.60771629747766   28.05166730563099
H         4.57638656735405    7.28302624793278   28.24340942110135
C         2.71580826741993    7.26214784716391   30.22864197761371
C         1.52798932532653    7.68335804768227   30.79181541724575
H         0.59386334327278    7.46206607736766   30.29952792163080
C         1.48406604215859    8.46576183177313   31.95633920766467
C         0.26101475412512    8.93413675133834   32.48569306137358
H        -0.65819849436987    8.64970315326379   31.99673283242792
C         0.24452704588734    9.75505494450427   33.57830234318396
H        -0.68996754401239   10.12638466288648   33.96866144015500
C         1.44948050758246   10.13945870744876   34.19024250589209
H         1.41961801696629   10.80882013244988   35.03643553750025
C         2.65055343149012    9.68523918795088   33.71529656702366
H         3.57534390657275    9.98754562751052   34.18402215965713
C         2.69924336181806    8.83635816563870   32.59199502710567
C         3.91692366031367    8.36957750926988   32.04309878758755
C         3.92313820308327    7.61097196018067   30.89412569902960
O         4.91938458031355    6.90270800294506   34.10254091100993
H         5.43099281526357    6.23698156393687   34.59045511376669
N         7.34125819150123    5.52241091476630   40.12952690856660
N         6.65129714373863    6.79332408834350   37.80151853806895
C         7.65259463781730    5.05870366970797   41.40635959911261
C         7.19007648774423    3.80474046057753   41.80794390375041
H         6.65511228763722    3.19390371125624   41.09745645535079
C         7.48045802502529    3.33189921674126   43.07217386831098
H         7.14156407505692    2.35250376369834   43.37163144215366
C         8.21525443838514    4.10758355960487   43.95739215802129
H         8.43232831961844    3.73854361880870   44.94697112502075
C         8.67207098013516    5.35739549887134   43.56638093649671
H         9.24043928674111    5.96425256529653   44.25342112062238
C         8.40459766988420    5.83104330778220   42.29703493682475
H         8.72643314005363    6.82058049634466   42.00745732486330
C         8.23610359101084    6.12895836727856   39.44592758756568
H         9.25996992610889    6.22863024764939   39.80380838777712
C         7.94144509140347    6.68581138427211   38.14549278297856
C         8.96371665388247    7.08900267420681   37.28032334766415
H         9.99436021415509    6.98950960813199   37.58184465737535
C         8.64007772138865    7.58591668842233   36.03591177488617
H         9.42155197463963    7.85754040497817   35.34302661372837
C         7.29247628550738    7.72840442354641   35.68244745283372
C         6.34696108375799    7.32236708960478   36.63175357699979
H         5.29521895305869    7.46336910637625   36.43296044951852
C         6.88066193330641    8.34219515853426   34.41487668368870
C         7.64103189174789    9.36649076595132   33.88829340091129
H         8.55060379889037    9.66678906638889   34.38529982868916
C         7.23812855004626   10.09834226050630   32.76046718521297
C         8.02168476849729   11.15109981402338   32.23842061423282
H         8.97154642986917   11.36932089252560   32.70219004219749
C         7.57468913237707   11.89111524930866   31.17963054775128
H         8.16927657957064   12.70306709749712   30.79185821094574
C         6.32421053908794   11.61360708846711   30.60189851162871
H         5.97444670925111   12.22299866376347   29.78312246504643
C         5.54595823521380   10.59288182999532   31.07668679675211
H         4.58057715672348   10.39056466373771   30.63680270121139
C         5.98384281874136    9.80455079444614   32.16157388343014
C         5.22062903149434    8.72359464487471   32.67328447753605
C         5.67346595197856    7.97957394020322   33.74759436774824
