260
 energy: -406.556236324478 gnorm: 0.000962955116 xtb: 6.4.0 (d4b70c2)
Zn        5.49070344365535    5.58767842876957   38.99219613458735
O         3.90968663196670    3.68988880298317   34.21996890478155
C         4.79846245332697    2.62562006972275   33.96096331267585
N         4.44557324230243    7.17869042917379   39.87145284449961
N         3.75153365360981    5.67167275549042   37.69911987802958
C         4.83254143204216    7.92574854322672   40.98089262321796
C         5.11981417415328    7.25328896531652   42.16978937845774
H         5.01835257044152    6.17970055012156   42.20717745764130
C         5.47139732153502    7.96896423506483   43.29785832867235
H         5.66267347754112    7.44583175454025   44.22156808286717
C         5.57924030325733    9.35105784520341   43.24574204426921
H         5.86087025153460    9.90572358956599   44.12650002220453
C         5.32945160844737   10.02024877614001   42.05643969464084
H         5.42770533107151   11.09355746934414   42.00995628135014
C         4.94674317520078    9.31798079609696   40.93036100346286
H         4.77669543678197    9.83635178908286   39.99723595676716
C         3.52106730513194    7.59760834145974   39.09329249568749
H         2.97469592909174    8.51961927624232   39.29076968970681
C         3.10171457803351    6.82010849083538   37.94916222054018
C         2.03449814247644    7.23780405792920   37.15092515353671
H         1.54286850620782    8.17652291724151   37.35391849940428
C         1.62297052404017    6.43637630466075   36.10820933495712
H         0.81512083397594    6.75686527797827   35.46826442377967
C         2.25442845556869    5.20613271652808   35.87980383103322
C         3.33666725571846    4.89549324484489   36.71473599671327
H         3.87465222379924    3.96903307420774   36.58257748880406
C         1.72596147000855    4.32003794603346   34.83489248472537
C         0.35938068638966    4.25283133081866   34.67980917013339
H        -0.28556804863225    4.78290226421932   35.36445336986448
C        -0.23978334501413    3.47165427966681   33.67996960963786
C        -1.64310599588227    3.38933205096782   33.55027102204060
H        -2.26071650629003    3.91712170287847   34.26093131526621
C        -2.20623875982710    2.65503586075455   32.54480110612156
H        -3.27808322507220    2.58633678365512   32.45054755952209
C        -1.38523168327072    1.98967980433400   31.62220335001367
H        -1.83841606458215    1.42199653891453   30.82442613270184
C        -0.02101445834813    2.04824153991725   31.72683948681744
H         0.59220332692552    1.52512016721332   31.00862303171088
C         0.59318651223909    2.76968596580555   32.77148856868232
C         2.01099841726353    2.81752463599912   32.93585018779045
C         2.56274900167517    3.54682036530918   33.97071898955872
O         7.98808723415289    5.15530352357294   34.43992575837531
C         8.47659831511840    6.42762637950419   34.07544015199864
N         4.65736129928342    3.95068318095120   40.00760805060040
N         6.39025153460684    4.01688332595205   37.88080376459542
C         3.92009570206062    3.92134361465371   41.19036083199522
C         2.83208097065154    4.78239523715339   41.34589474343394
H         2.53944650349844    5.41674964632425   40.52377145293461
C         2.10739819756160    4.77577060855690   42.52152029822759
H         1.25607199743134    5.42955042788739   42.62872068944361
C         2.46817520734434    3.93251630329851   43.56252190465056
H         1.90665304371300    3.93920955952550   44.48283037847638
C         3.55268094871664    3.08088484332239   43.41663884714779
H         3.83952764843759    2.42727251754254   44.22521023037923
C         4.26971182603328    3.06198998448209   42.23610875665238
H         5.13469952591779    2.42370742428113   42.13644328810275
C         5.02789585262082    2.85507911770683   39.46132546379280
H         4.71756007483599    1.88606115493011   39.85208008881550
C         5.87937638112093    2.84701314969930   38.29432178092708
C         6.17450108048074    1.65754041036098   37.62607222408995
H         5.74290791824304    0.72707274749868   37.96054302588690
C         7.00103227226495    1.69467951020558   36.52567896795347
H         7.18198465007488    0.78622962236497   35.97368886925800
C         7.58232549177607    2.90632704289421   36.11243222037489
C         7.22039204099162    4.04190176042701   36.85420359730698
H         7.62356160583707    5.00910738653888   36.60245365190170
C         8.48580781096860    2.89962716193056   34.95446431383314
C         9.18590087637357    1.73956953053303   34.69437483856949
H         9.16537539080368    0.92516601513152   35.40150520487263
C         9.97158174638435    1.57341357870486   33.54607124209976
C        10.66742898139790    0.36976495151336   33.29858771969390
H        10.61342679664056   -0.42040152098110   34.03185857840548
C        11.39100651823168    0.20994086628666   32.15094536144755
H        11.92785286342911   -0.70623700092385   31.96382838943758
C        11.43352023709247    1.24490352587396   31.20512488766192
H        11.99941158848135    1.10629500929625   30.29677058895825
C        10.77809611633052    2.42708055291583   31.42584735672553
H        10.83138664288239    3.21097700150206   30.68548743117279
C        10.04499007235778    2.63663636893004   32.61196777474603
C         9.40344123148906    3.87887402853640   32.91196150213023
C         8.66432448217266    4.01591033020151   34.07099500949717
O         7.71326273341333    5.03807120641629   30.60745425235557
C         6.92316241183415    4.25821358184319   31.47318532849924
N         5.85046191552863    7.28862608327045   24.79041497846896
N         7.17144548741481    6.44716714851397   27.03233476408986
C         5.25711812737075    7.66315289956337   23.58280979332921
C         3.86854225697075    7.62073668008281   23.45792198898074
H         3.27001219679272    7.35777845658926   24.31688422751190
C         3.26867850811304    7.98325867524732   22.26747840667638
H         2.19263221533117    7.97504972640970   22.18434212036089
C         4.04132495967282    8.36855425632779   21.18228466699412
H         3.56932578017258    8.63917554862314   20.25150163345199
C         5.42182689973124    8.41254606256302   21.30088453532629
H         6.02666479577504    8.71592444591995   20.46095572130729
C         6.02993192309939    8.07735738843216   22.49515835419367
H         7.10669468766911    8.08614900502192   22.57912051588736
C         6.79439864157649    8.00514385740917   25.27123619951900
H         7.10932848293943    8.93233984121589   24.79333504305841
C         7.48013621020738    7.63157787553740   26.48503700953322
C         8.43632989864223    8.46640582450448   27.06838557170288
H         8.65467600379092    9.42639306358538   26.62748863003517
C         9.08296086036670    8.05538280921038   28.21397504436414
H         9.79043881613274    8.71525637315261   28.69105946747533
C         8.80950272498293    6.79075675836511   28.76007721932237
C         7.82263994601934    6.04003945793961   28.10441231441879
H         7.56053246485838    5.06285219010103   28.47269955756044
C         9.55608616970331    6.30980156947558   29.92707382576072
C        10.85468834805435    6.74164134004993   30.08454600265411
H        11.31068698329669    7.36616179661021   29.33202306592972
C        11.64402170553532    6.36096611640808   31.17839408554757
C        12.96940300154166    6.82488867067691   31.32490906447862
H        13.37169432818851    7.48832734049233   30.57456866851129
C        13.72487210933648    6.44259578840944   32.39692244474759
H        14.73840015945294    6.79314963227816   32.50750115933500
C        13.17760972034647    5.58540824236063   33.36258267029176
H        13.77893028805473    5.28953720459258   34.20820356022329
C        11.89635287519010    5.11661886222248   33.24147730864561
H        11.50208780543056    4.45459723189140   33.99789380316585
C        11.09182841367189    5.48021889204504   32.14161666522194
C         9.76240477241662    4.97946333317695   31.96646283163253
C         9.00399242470564    5.39352976464300   30.88821852418328
O         3.67982973048706    3.91541086812547   30.68802458351449
C         2.60629343885130    4.79604220589151   30.93824020600331
N         7.18121551574646    4.44648691545689   25.03618494796564
N         5.67398246109477    3.75728025738785   27.21051908306237
C         7.92789054020826    4.82961649246616   23.92518351953359
C         7.25484550930980    5.11537140498441   22.73624449091428
H         6.18106011106646    5.01575497455225   22.69999657332223
C         7.97004633475818    5.46319162770728   21.60671653335042
H         7.44635095993226    5.65338024320788   20.68310125098058
C         9.35238464294123    5.56866486075482   21.65722541976307
H         9.90669133849721    5.84742079020178   20.77532997624488
C        10.02227154534413    5.32025438349560   22.84642689068318
H        11.09580501474001    5.41661222117025   22.89165664622250
C         9.32039320075656    4.94144195461751   23.97405064360640
H         9.83945739518549    4.77270545084083   24.90702269998786
C         7.60023467310995    3.52422539417951   25.81696800040318
H         8.52196990911912    2.97698235925877   25.62064445985450
C         6.82329367010054    3.10817994044280   26.96265695635486
C         7.24256464801952    2.04442033313513   27.76468616628106
H         8.18263117786821    1.55429224288473   27.56432923220655
C         6.44081104046233    1.63427376324319   28.80762167851374
H         6.76245155939742    0.82915715577275   29.45043080579465
C         5.20860295095995    2.26331456111530   29.03242482878618
C         4.89749380336169    3.34366290717284   28.19524128678923
H         3.97037745617710    3.88096269592400   28.32559374025576
C         4.32195333568762    1.73342120656804   30.07609744576012
C         4.25962683544115    0.36663964577540   30.23236722950160
H         4.79304674332448   -0.27694995857877   29.54903025811243
C         3.47994672116214   -0.23474632277519   31.23193751605464
C         3.40282346494334   -1.63831948036100   31.36259099832733
H         3.93267651931453   -2.25443946501496   30.65217286408078
C         2.67081479464361   -2.20342738254086   32.36858810926896
H         2.60575469647149   -3.27545841082450   32.46336010643649
C         2.00287794104487   -1.38419659958024   33.29095313367388
H         1.43743293782550   -1.83894816256945   34.08943006166991
C         2.05620124105219   -0.01986802697875   33.18525812564339
H         1.53130130948103    0.59194901358257   33.90337104751225
C         2.77479901453633    0.59627893733342   32.13973342497741
C         2.81693411903531    2.01400775265392   31.97371890542624
C         3.54407915342083    2.56781433317117   30.93829623938061
Zn        5.59019579476659    5.49342388191814   25.91281684045424
O         5.14815729559968    7.98361962811109   30.46382551967595
C         6.42222058194973    8.45568258135917   30.84249586758169
N         3.95540800164577    4.65651766567764   24.89724517290325
N         4.01723052762410    6.39248791709669   27.02040689280155
C         3.93027385491846    3.91525130819487   23.71678661083310
C         4.78829603709392    2.82362682069552   23.57034767784990
H         5.41628486926870    2.53142639594900   24.39752290112173
C         4.78645098437348    2.09515194378806   22.39705336640207
H         5.43765819923280    1.24101302120014   22.29677556853787
C         3.95123865137719    2.45572260315052   21.34954014120867
H         3.96189970431160    1.89134173967099   20.43101606389254
C         3.10242206455829    3.54356767175758   21.48661712803934
H         2.45489978878953    3.83007449871626   20.67304412697358
C         3.07851312653623    4.26439723878417   22.66477453815688
H         2.44253549906557    5.13181366535300   22.75793854456482
C         2.85823065812021    5.03017083484457   25.43805941031593
H         1.89023434496964    4.72052023665478   25.04425259468818
C         2.84764343671576    5.88358628330638   26.60373640126211
C         1.65676769709202    6.18174167956324   27.26819192349521
H         0.72632120168809    5.75231176336555   26.93086414475873
C         1.69241220835267    7.00834236177437   28.36861539578279
H         0.78240632461864    7.19215450982986   28.91713424815780
C         2.90420779016533    7.58646573805680   28.78591516754060
C         4.04105525409790    7.22240321953453   28.04717928357368
H         5.00832974569297    7.62380006615578   28.30146465416047
C         2.89684481726982    8.49022577029590   29.94346747760792
C         1.73868746688502    9.19493143477387   30.19937295114973
H         0.92603063186218    9.17613701138645   29.49018314938088
C         1.57277671860971    9.98384925186814   31.34542781334901
C         0.37192127282855   10.68639194121400   31.58760728544976
H        -0.41644210548607   10.63421706571137   30.85225205645473
C         0.21254236636387   11.41423465317278   32.73256841450799
H        -0.70129574054823   11.95650683766859   32.91534708467469
C         1.24469987224325   11.45365104620541   33.68161237101516
H         1.10625006068326   12.02237592982084   34.58819982212045
C         2.42405072924522   10.79138796474164   33.46620885613329
H         3.20579915852694   10.84208719349131   34.20901567221587
C         2.63371108886278   10.05472931121231   32.28230821455347
C         3.87415534682074    9.40724354448570   31.98721467397095
C         4.01144300301119    8.66556115308086   30.82990872102388
O         5.02518461431392    7.71540788477795   34.29553153883184
C         4.23366500073630    6.93096232614773   33.43522964091115
N         7.28688292923014    5.84848289421305   40.11216819846624
N         6.44098796552124    7.16929634942814   37.87069667175879
C         7.66397380235266    5.25443661360630   41.31856543265746
C         7.62092181634556    3.86576907375824   41.44258689096002
H         7.35570360512522    3.26811089857487   40.58372631030578
C         7.98560041832314    3.26474659285444   42.63175760927521
H         7.97677272527762    2.18865308992946   42.71417314819235
C         8.37388221617667    4.03630764403140   43.71666100498248
H         8.64616198177420    3.56343490270769   44.64651922504835
C         8.41866633544520    5.41686964527280   43.59893740877035
H         8.72434737673799    6.02083070698447   44.43866492342690
C         8.08119732278117    6.02612111994366   42.40589466348820
H         8.09052792098302    7.10294941668389   42.32285482366407
C         8.00117726947707    6.79378841776557   39.63073462093945
H         8.92865559381334    7.10987458774235   40.10732782907587
C         7.62518794355067    7.47943152086812   38.41763641719225
C         8.45851811475375    8.43678961850395   37.83403543234012
H         9.41858865429129    8.65604281023011   38.27427800675190
C         8.04594962626471    9.08313169043158   36.68895173756219
H         8.70499961733993    9.79106021509762   36.21141647409068
C         6.78120456396919    8.80850999131410   36.14333580278620
C         6.03237263380399    7.82009916557194   36.79881150006879
H         5.05563602187510    7.55609967736879   36.43060989128281
C         6.30038755401040    9.55561184218940   34.97660029413107
C         6.73411952820746   10.85368717550954   34.81951022844894
H         7.35765463525693   11.30925817894581   35.57309214970000
C         6.35772048939489   11.64288638206527   33.72415999980387
C         6.82574551764865   12.96676964501736   33.57702528812137
H         7.48762724059946   13.36848526323957   34.32904643317362
C         6.44967889351180   13.72114843651965   32.50208233844444
H         6.80363083078867   14.73341788573787   32.39075772001583
C         5.59467686474603   13.17429694335801   31.53421412592072
H         5.30407608435010   13.77457880662273   30.68603305898672
C         5.12144213298473   11.89477428788127   31.65625426537404
H         4.46133422112336   11.50076414621181   30.89804603592175
C         5.47858058754781   11.09145315944055   32.75914330800153
C         4.97348054971534    9.76381425005408   32.93515608659846
C         5.38381068364662    9.00517106066917   34.01475243651164
H         3.22140543763561    7.33356394204926   33.33682209666456
H         4.19585901071613    5.95253187036018   33.91498402877313
H         4.68264906340091    6.81708703252093   32.44813020188750
H         5.69360608641695    2.85966579511002   34.53449570085497
H         5.06715040952317    2.55706162627429   32.90606180259429
H         4.38601642419482    1.66956996512673   34.29237049442246
H         7.12510995668381    7.90212500848056   30.22076809508047
H         6.64868122357347    8.25504319323395   31.89182166997987
H         6.52933567178103    9.52603726879465   30.65238066526444
H         7.31710084939844    3.24299538047806   31.57643051322395
H         5.94368030022841    4.22608870576867   30.99501761920126
H         6.81519704835078    4.71364878357410   32.45802832084605
H         2.83515893980837    5.69132169642852   30.36275001000230
H         2.52946932227861    5.06746524386183   31.99190127146604
H         1.65562339948494    4.37394312015885   30.60297669273033
H         7.92771031993356    7.13135215865607   34.70034854201505
H         8.28445894063006    6.66566444825359   33.02698490327319
H         9.54699360804249    6.52062835769753   34.27222083704140
