%chk=m2_ld_FINAL.chk
%nprocshared=48
%mem=120GB
# SP PBE1PBE/def2svp empiricaldispersion=GD3BJ scrf=(solvent=dmso)

m2_ld

4 1
 Pd                 9.95250000    0.76360000   -0.67350000
 Pd               -10.00290000    0.88710000   -0.00630000
 C                -10.67280000    2.55570000    3.86010000
 C                 -9.59640000    2.06400000    4.63950000
 C                 -8.63550000    1.22240000    3.99830000
 C                 -7.52600000    0.69900000    4.73840000
 C                 -7.40760000    1.06250000    6.06820000
 C                 -8.35490000    1.89780000    6.69860000
 C                 -9.43810000    2.38780000    6.00720000
 C                 -6.50770000   -0.18410000    4.12600000
 C                 -6.84910000   -1.34930000    3.41910000
 C                 -5.86860000   -2.16970000    2.87440000
 C                 -4.50500000   -1.85600000    3.02770000
 C                 -3.47660000   -2.66800000    2.46920000
 C                 -2.55930000   -3.32860000    2.00450000
 C                 -1.45290000   -4.00350000    1.45360000
 C                 -1.32440000   -5.32210000    1.03420000
 C                 -0.05420000   -5.60900000    0.49680000
 C                  0.79590000   -4.50940000    0.49540000
 C                  2.08110000   -4.34820000   -0.05650000
 C                  3.14530000   -4.08370000   -0.59730000
 C                  4.28000000   -3.66390000   -1.34790000
 C                  4.54310000   -2.28710000   -1.47750000
 C                  5.53820000   -1.82620000   -2.32900000
 C                  6.31160000   -2.72550000   -3.08200000
 C                  7.21360000   -2.25730000   -4.16150000
 C                  8.20440000   -1.23440000   -3.99280000
 C                  8.94650000   -0.76200000   -5.12090000
 C                  9.90350000    0.26060000   -4.90850000
 C                 10.13510000    0.73540000   -3.64610000
 N                  9.47120000    0.23160000   -2.57120000
 C                  8.54430000   -0.70050000   -2.73230000
 C                  8.72550000   -1.33290000   -6.39570000
 C                  7.81020000   -2.34940000   -6.53220000
 C                  7.06030000   -2.80150000   -5.42560000
 C                  6.09470000   -4.10180000   -2.89540000
 C                  5.10160000   -4.56950000   -2.04400000
 S                  0.01500000   -3.12620000    1.18340000
 C                 -4.16300000   -0.69910000    3.75310000
 C                 -5.14720000    0.11980000    4.28570000
 C                 -8.81260000    0.97130000    2.62230000
 N                 -9.83440000    1.44620000    1.93090000
 C                -10.76750000    2.23190000    2.53340000
 H                -11.42800000    3.19890000    4.31430000
 H                 -6.57160000    0.67250000    6.65270000
 H                 -8.22380000    2.14530000    7.75420000
 H                -10.17650000    3.02710000    6.49490000
 H                 -7.89780000   -1.63760000    3.31260000
 H                 -6.15840000   -3.06500000    2.32410000
 H                 -2.13870000   -6.04310000    1.10890000
 H                  0.23880000   -6.57930000    0.09560000
 H                  3.90900000   -1.58100000   -0.94310000
 H                  5.66390000   -0.74820000   -2.45970000
 H                 10.47000000    0.66200000   -5.75020000
 H                 10.86810000    1.51700000   -3.44300000
 H                  8.05760000   -1.07610000   -1.82960000
 H                  9.29260000   -0.96390000   -7.25220000
 H                  7.63900000   -2.80450000   -7.51000000
 H                  6.30740000   -3.57720000   -5.57950000
 H                  6.70540000   -4.81960000   -3.44760000
 H                  4.93570000   -5.64300000   -1.93750000
 H                 -3.11350000   -0.43560000    3.87800000
 H                 -4.85710000    1.02480000    4.82390000
 H                 -8.08730000    0.36470000    2.07760000
 H                -11.58110000    2.59340000    1.90370000
 C                 -9.39570000    4.49660000   -2.12950000
 C                 -8.05140000    4.85980000   -1.87060000
 C                 -7.29550000    4.04340000   -0.97220000
 C                 -5.91680000    4.34180000   -0.72280000
 C                 -5.37830000    5.46540000   -1.32980000
 C                 -6.13660000    6.28760000   -2.18830000
 C                 -7.44850000    5.98840000   -2.47230000
 C                 -5.02410000    3.47900000    0.07840000
 C                 -4.06890000    4.07360000    0.91860000
 C                 -3.09430000    3.31250000    1.54270000
 C                 -3.05120000    1.92110000    1.34950000
 C                 -1.99320000    1.15720000    1.91170000
 C                 -1.06420000    0.51670000    2.37070000
 C                  0.01870000   -0.23310000    2.86160000
 C                  0.05810000   -1.07670000    3.95860000
 C                  1.30940000   -1.70280000    4.12540000
 C                  2.22610000   -1.34410000    3.15310000
 C                  3.53920000   -1.82010000    2.97940000
 C                  4.66290000   -2.25980000    2.80700000
 C                  5.95440000   -2.80140000    2.54970000
 C                  6.08290000   -3.95010000    1.74960000
 C                  7.34070000   -4.43400000    1.41430000
 C                  8.49550000   -3.78560000    1.86890000
 C                  9.82470000   -4.19030000    1.36000000
 C                 10.57890000   -3.25170000    0.58930000
 C                 11.86250000   -3.59790000    0.07450000
 C                 12.55380000   -2.61490000   -0.67840000
 C                 11.98390000   -1.38890000   -0.89940000
 N                 10.74570000   -1.08440000   -0.41830000
 C                 10.07010000   -1.97440000    0.28170000
 C                 12.37490000   -4.89330000    0.32300000
 C                 11.62380000   -5.79590000    1.04160000
 C                 10.35270000   -5.45010000    1.55590000
 C                  8.36510000   -2.67640000    2.72000000
 C                  7.11180000   -2.18450000    3.05570000
 S                  1.53930000   -0.21230000    2.02880000
 C                 -4.03390000    1.31140000    0.55290000
 C                 -5.00180000    2.08300000   -0.07390000
 C                 -7.96610000    2.95890000   -0.36610000
 N                 -9.21410000    2.63510000   -0.65880000
 C                 -9.93330000    3.38810000   -1.53640000
 H                -10.00170000    5.09250000   -2.81350000
 H                 -4.32100000    5.69250000   -1.18040000
 H                 -5.66020000    7.15470000   -2.65030000
 H                 -8.03310000    6.60460000   -3.15790000
 H                 -4.08500000    5.15430000    1.07270000
 H                 -2.34200000    3.79110000    2.17180000
 H                 -0.80160000   -1.23730000    4.60890000
 H                  1.54410000   -2.41300000    4.91790000
 H                  5.18550000   -4.43830000    1.36630000
 H                  7.43100000   -5.29730000    0.75120000
 H                 13.54140000   -2.83180000   -1.08840000
 H                 12.48920000   -0.60930000   -1.47130000
 H                  9.07780000   -1.68130000    0.62610000
 H                 13.35910000   -5.16390000   -0.06410000
 H                 12.01470000   -6.79830000    1.22900000
 H                  9.78820000   -6.18510000    2.13360000
 H                  9.25880000   -2.17760000    3.10380000
 H                  7.02320000   -1.30650000    3.69810000
 H                 -4.00530000    0.23200000    0.39340000
 H                 -5.69890000    1.59200000   -0.75310000
 H                 -7.45800000    2.33810000    0.37280000
 H                -10.95350000    3.05980000   -1.73650000
 C                -11.05690000   -1.08420000   -3.64430000
 C                 -9.84320000   -1.13750000   -4.37470000
 C                 -8.72590000   -0.41510000   -3.85700000
 C                 -7.47660000   -0.41860000   -4.55540000
 C                 -7.37060000   -1.19570000   -5.69360000
 C                 -8.47180000   -1.92520000   -6.19440000
 C                 -9.69470000   -1.88650000   -5.56520000
 C                 -6.32130000    0.37920000   -4.08260000
 C                 -6.40570000    1.77600000   -3.96280000
 C                 -5.31400000    2.52430000   -3.53970000
 C                 -4.10620000    1.88880000   -3.19560000
 C                 -3.01090000    2.60910000   -2.64230000
 C                 -2.08210000    3.17230000   -2.08440000
 C                 -1.00020000    3.75880000   -1.40210000
 C                 -0.60690000    5.08930000   -1.35350000
 C                  0.53670000    5.29870000   -0.55770000
 C                  1.02420000    4.13110000    0.01330000
 C                  2.15250000    3.93900000    0.83300000
 C                  3.13480000    3.69640000    1.51690000
 C                  4.29950000    3.30110000    2.23360000
 C                  4.27040000    2.12910000    3.01170000
 C                  5.42390000    1.65610000    3.62220000
 C                  6.64610000    2.32620000    3.46720000
 C                  7.86440000    1.82360000    4.14590000
 C                  9.05150000    1.48070000    3.42260000
 C                 10.23040000    1.08150000    4.12310000
 C                 11.38160000    0.77490000    3.35560000
 C                 11.32540000    0.80490000    1.98840000
 N                 10.17300000    1.11030000    1.32960000
 C                  9.09130000    1.44720000    2.01320000
 C                 10.20360000    0.98770000    5.53410000
 C                  9.03800000    1.26390000    6.21040000
 C                  7.87780000    1.68090000    5.52090000
 C                  6.67130000    3.50790000    2.70800000
 C                  5.51600000    3.99900000    2.11110000
 S                  0.05310000    2.76650000   -0.44390000
 C                 -4.01470000    0.49190000   -3.33960000
 C                 -5.10300000   -0.24690000   -3.78250000
 C                 -8.88370000    0.22120000   -2.60870000
 N                -10.01890000    0.20740000   -1.93040000
 C                -11.11430000   -0.41240000   -2.45310000
 H                -11.94550000   -1.59400000   -4.01950000
 H                 -6.42200000   -1.22100000   -6.23410000
 H                 -8.34660000   -2.51390000   -7.10570000
 H                -10.55050000   -2.43520000   -5.96310000
 H                 -7.33790000    2.28680000   -4.21690000
 H                 -5.39640000    3.60880000   -3.45730000
 H                 -1.13970000    5.87660000   -1.88710000
 H                  1.00600000    6.26930000   -0.39670000
 H                  3.33410000    1.57880000    3.11270000
 H                  5.37920000    0.73830000    4.21300000
 H                 12.31320000    0.49810000    3.85150000
 H                 12.19150000    0.56480000    1.37110000
 H                  8.19170000    1.67470000    1.43960000
 H                 11.10670000    0.68580000    6.06800000
 H                  9.00590000    1.17980000    7.29870000
 H                  6.97880000    1.92790000    6.08960000
 H                  7.60800000    4.05950000    2.59530000
 H                  5.55500000    4.91650000    1.52160000
 H                 -3.08370000   -0.01200000   -3.07760000
 H                 -5.01150000   -1.33150000   -3.87660000
 H                 -8.03470000    0.72580000   -2.14710000
 H                -12.02990000   -0.36520000   -1.86280000
 C                -12.63550000   -2.18030000    1.36070000
 C                -11.89810000   -3.38040000    1.19990000
 C                -10.56600000   -3.27900000    0.69720000
 C                 -9.77910000   -4.45790000    0.48910000
 C                -10.32640000   -5.67730000    0.83800000
 C                -11.63880000   -5.77400000    1.35230000
 C                -12.42110000   -4.65480000    1.52220000
 C                 -8.40900000   -4.34890000   -0.05770000
 C                 -8.16300000   -3.65590000   -1.25410000
 C                 -6.86570000   -3.42060000   -1.68670000
 C                 -5.77330000   -3.89120000   -0.93660000
 C                 -4.43710000   -3.54990000   -1.29270000
 C                 -3.28420000   -3.23110000   -1.52870000
 C                 -1.95580000   -2.83800000   -1.77890000
 C                 -0.92940000   -3.58140000   -2.33410000
 C                  0.27830000   -2.86220000   -2.43830000
 C                  0.17950000   -1.56940000   -1.95630000
 C                  1.18340000   -0.58770000   -1.88370000
 C                  2.04110000    0.27460000   -1.81000000
 C                  3.04830000    1.27410000   -1.72170000
 C                  4.05470000    1.18860000   -0.74620000
 C                  5.03450000    2.16440000   -0.66340000
 C                  5.02760000    3.27010000   -1.52690000
 C                  5.98820000    4.37790000   -1.35470000
 C                  7.38360000    4.15590000   -1.12360000
 C                  8.24470000    5.25760000   -0.83040000
 C                  9.60690000    4.97930000   -0.55690000
 C                 10.05950000    3.68870000   -0.56900000
 N                  9.23560000    2.64920000   -0.88360000
 C                  7.96680000    2.87140000   -1.17710000
 C                  7.72150000    6.57120000   -0.82100000
 C                  6.38770000    6.77250000   -1.09170000
 C                  5.52790000    5.68370000   -1.34750000
 C                  4.01680000    3.35500000   -2.49670000
 C                  3.04500000    2.37150000   -2.60050000
 S                 -1.41860000   -1.23760000   -1.36800000
 C                 -6.01960000   -4.66590000    0.21100000
 C                 -7.32140000   -4.88770000    0.64340000
 C                -10.06140000   -1.98590000    0.44610000
 N                -10.78600000   -0.89150000    0.59090000
 C                -12.06850000   -0.97520000    1.04220000
 H                -13.65940000   -2.21290000    1.73630000
 H                 -9.74160000   -6.58760000    0.68940000
 H                -12.03730000   -6.75920000    1.60390000
 H                -13.44020000   -4.73380000    1.90540000
 H                 -9.00140000   -3.28820000   -1.85010000
 H                 -6.69210000   -2.85450000   -2.60360000
 H                 -1.06100000   -4.61620000   -2.64910000
 H                  1.20700000   -3.26670000   -2.83920000
 H                  4.04820000    0.37030000   -0.02480000
 H                  5.77480000    2.09660000    0.13310000
 H                 10.29620000    5.79220000   -0.32380000
 H                 11.09410000    3.43480000   -0.33400000
 H                  7.37100000    2.00390000   -1.46380000
 H                  8.38380000    7.40900000   -0.59520000
 H                  5.97560000    7.78370000   -1.08520000
 H                  4.46300000    5.87260000   -1.49770000
 H                  4.00000000    4.20200000   -3.18560000
 H                  2.26610000    2.44700000   -3.36100000
 H                 -5.17530000   -5.05140000    0.78580000
 H                 -7.49760000   -5.44440000    1.56670000
 H                 -9.03030000   -1.85390000    0.11660000
 H                -12.61280000   -0.03470000    1.13970000

 1 31 1.0 94 1.0 157 1.0 220 1.0
 2 42 1.0 105 1.0 168 1.0 231 1.0
 3 4 1.5 43 2.0 44 1.0
 4 5 1.5 9 1.5
 5 6 1.5 41 1.5
 6 7 2.0 10 1.0
 7 8 1.5 45 1.0
 8 9 2.0 46 1.0
 9 47 1.0
 10 11 1.5 40 1.5
 11 12 1.5 48 1.0
 12 13 1.5 49 1.0
 13 14 1.5 39 1.5
 14 15 3.0
 15 16 1.5
 16 17 1.5 38 1.0
 17 18 1.5 50 1.0
 18 19 1.5 51 1.0
 19 20 1.5 38 1.0
 20 21 3.0
 21 22 1.5
 22 23 1.5 37 1.5
 23 24 1.5 52 1.0
 24 25 1.5 53 1.0
 25 26 1.0 36 1.5
 26 27 1.5 35 2.0
 27 28 1.5 32 1.5
 28 29 1.5 33 1.5
 29 30 2.0 54 1.0
 30 31 1.5 55 1.0
 31 32 1.5
 32 56 1.0
 33 34 2.0 57 1.0
 34 35 1.5 58 1.0
 35 59 1.0
 36 37 1.5 60 1.0
 37 61 1.0
 38
 39 40 1.5 62 1.0
 40 63 1.0
 41 42 2.0 64 1.0
 42 43 1.5
 43 65 1.0
 44
 45
 46
 47
 48
 49
 50
 51
 52
 53
 54
 55
 56
 57
 58
 59
 60
 61
 62
 63
 64
 65
 66 67 1.5 106 2.0 107 1.0
 67 68 1.5 72 1.5
 68 69 1.5 104 1.5
 69 70 2.0 73 1.0
 70 71 1.5 108 1.0
 71 72 2.0 109 1.0
 72 110 1.0
 73 74 1.5 103 1.5
 74 75 2.0 111 1.0
 75 76 1.5 112 1.0
 76 77 1.5 102 1.5
 77 78 3.0
 78 79 1.5
 79 80 2.0 101 1.0
 80 81 1.5 113 1.0
 81 82 2.0 114 1.0
 82 83 1.5 101 1.0
 83 84 3.0
 84 85 1.5
 85 86 1.5 100 1.5
 86 87 1.5 115 1.0
 87 88 1.5 116 1.0
 88 89 1.0 99 1.5
 89 90 1.5 98 2.0
 90 91 1.5 95 1.5
 91 92 1.5 96 1.5
 92 93 2.0 117 1.0
 93 94 1.5 118 1.0
 94 95 2.0
 95 119 1.0
 96 97 2.0 120 1.0
 97 98 1.5 121 1.0
 98 122 1.0
 99 100 1.5 123 1.0
 100 124 1.0
 101
 102 103 1.5 125 1.0
 103 126 1.0
 104 105 2.0 127 1.0
 105 106 1.5
 106 128 1.0
 107
 108
 109
 110
 111
 112
 113
 114
 115
 116
 117
 118
 119
 120
 121
 122
 123
 124
 125
 126
 127
 128
 129 130 1.5 169 2.0 170 1.0
 130 131 1.5 135 1.5
 131 132 1.5 167 1.5
 132 133 2.0 136 1.0
 133 134 1.5 171 1.0
 134 135 2.0 172 1.0
 135 173 1.0
 136 137 1.5 166 1.5
 137 138 1.5 174 1.0
 138 139 1.5 175 1.0
 139 140 1.5 165 1.5
 140 141 3.0
 141 142 1.5
 142 143 1.5 164 1.0
 143 144 1.5 176 1.0
 144 145 1.5 177 1.0
 145 146 1.5 164 1.0
 146 147 3.0
 147 148 1.5
 148 149 1.5 163 1.5
 149 150 1.5 178 1.0
 150 151 1.5 179 1.0
 151 152 1.0 162 1.5
 152 153 1.5 161 2.0
 153 154 1.5 158 1.5
 154 155 1.5 159 1.5
 155 156 2.0 180 1.0
 156 157 1.5 181 1.0
 157 158 1.5
 158 182 1.0
 159 160 2.0 183 1.0
 160 161 1.5 184 1.0
 161 185 1.0
 162 163 1.5 186 1.0
 163 187 1.0
 164
 165 166 1.5 188 1.0
 166 189 1.0
 167 168 2.0 190 1.0
 168 169 1.5
 169 191 1.0
 170
 171
 172
 173
 174
 175
 176
 177
 178
 179
 180
 181
 182
 183
 184
 185
 186
 187
 188
 189
 190
 191
 192 193 1.5 232 2.0 233 1.0
 193 194 1.5 198 1.5
 194 195 1.5 230 1.5
 195 196 2.0 199 1.0
 196 197 1.5 234 1.0
 197 198 2.0 235 1.0
 198 236 1.0
 199 200 1.5 229 1.5
 200 201 1.5 237 1.0
 201 202 1.5 238 1.0
 202 203 1.5 228 1.5
 203 204 3.0
 204 205 1.5
 205 206 2.0 227 1.0
 206 207 1.5 239 1.0
 207 208 2.0 240 1.0
 208 209 1.5 227 1.0
 209 210 3.0
 210 211 1.5
 211 212 1.5 226 1.5
 212 213 2.0 241 1.0
 213 214 1.5 242 1.0
 214 215 1.0 225 1.5
 215 216 1.5 224 2.0
 216 217 1.5 221 1.5
 217 218 1.5 222 1.5
 218 219 2.0 243 1.0
 219 220 1.5 244 1.0
 220 221 2.0
 221 245 1.0
 222 223 2.0 246 1.0
 223 224 1.5 247 1.0
 224 248 1.0
 225 226 1.5 249 1.0
 226 250 1.0
 227
 228 229 1.5 251 1.0
 229 252 1.0
 230 231 2.0 253 1.0
 231 232 1.5
 232 254 1.0
 233
 234
 235
 236
 237
 238
 239
 240
 241
 242
 243
 244
 245
 246
 247
 248
 249
 250
 251
 252
 253
 254

