%chk=trans_l2_lb_FINAL_BROKEN.chk
%nprocshared=48
%mem=120GB
# SP PBE1PBE/def2svp empiricaldispersion=GD3BJ scrf=(solvent=dmso)

trans_l2_lb

4 1
 Pd                 7.24330000    0.57970000    0.70540000
 Pd                -5.84510000   -0.51620000    0.21040000
 C                  0.91940000   -3.81530000   -3.86180000
 C                 -0.36570000   -3.41600000   -3.50550000
 C                 -0.58750000   -2.85830000   -2.24060000
 C                  0.49310000   -2.67980000   -1.37070000
 C                  1.79670000   -3.04460000   -1.72880000
 C                  1.98800000   -3.63370000   -2.98780000
 C                  2.93020000   -2.78550000   -0.80840000
 C                  2.72800000   -2.42770000    0.53260000
 C                  3.82030000   -2.13540000    1.34220000
 N                  5.08350000   -2.20360000    0.92630000
 C                  5.29160000   -2.57880000   -0.33580000
 C                  4.26600000   -2.86010000   -1.23340000
 C                 -1.93020000   -2.44360000   -1.78910000
 C                 -2.80090000   -1.69310000   -2.58950000
 C                 -3.99650000   -1.22710000   -2.05800000
 N                 -4.36040000   -1.49510000   -0.79640000
 C                 -3.57340000   -2.27890000   -0.03910000
 C                 -2.36370000   -2.76550000   -0.49550000
 H                  1.09210000   -4.28240000   -4.83320000
 H                 -1.19770000   -3.56450000   -4.19740000
 H                  0.30590000   -2.20100000   -0.40890000
 H                  2.97890000   -3.97070000   -3.29450000
 H                  1.72940000   -2.36930000    0.96490000
 H                  3.66100000   -1.82850000    2.38060000
 H                  6.33400000   -2.64690000   -0.66350000
 H                  4.52440000   -3.12070000   -2.25990000
 H                 -2.53260000   -1.42000000   -3.61100000
 H                 -4.67040000   -0.59780000   -2.64230000
 H                 -3.92400000   -2.50740000    0.96960000
 H                 -1.76020000   -3.39470000    0.15960000
 C                  0.33840000    5.32550000    0.69940000
 C                 -0.84440000    4.59570000    0.63860000
 C                 -0.81860000    3.19970000    0.75870000
 C                  0.41310000    2.54560000    0.87990000
 C                  1.60810000    3.27360000    0.89790000
 C                  1.55810000    4.67410000    0.83480000
 C                  2.91360000    2.59090000    0.91630000
 C                  3.13500000    1.41580000    0.18530000
 C                  4.39720000    0.84970000    0.15080000
 N                  5.42630000    1.38670000    0.82640000
 C                  5.23600000    2.49680000    1.55820000
 C                  4.00430000    3.12230000    1.61800000
 C                 -2.06940000    2.41550000    0.73830000
 C                 -2.28810000    1.36890000    1.64420000
 C                 -3.44980000    0.61850000    1.56150000
 N                 -4.37610000    0.84750000    0.61930000
 C                 -4.20190000    1.86820000   -0.23550000
 C                 -3.07930000    2.67840000   -0.19610000
 H                  0.30150000    6.41050000    0.60720000
 H                 -1.78900000    5.12660000    0.50380000
 H                  0.43970000    1.45540000    0.94610000
 H                  2.48270000    5.25500000    0.83560000
 H                  2.34110000    0.95240000   -0.40200000
 H                  4.60120000   -0.03670000   -0.44900000
 H                  6.09330000    2.89520000    2.10070000
 H                  3.90330000    4.02130000    2.22630000
 H                 -1.56060000    1.13730000    2.42320000
 H                 -3.64380000   -0.19940000    2.25780000
 H                 -4.97640000    2.02110000   -0.99060000
 H                 -2.97860000    3.48240000   -0.92640000
 C                  8.10090000    1.02700000    4.84020000
 C                  7.93310000    1.23300000    3.49860000
 N                  7.31940000    0.30630000    2.70930000
 C                  6.88840000   -0.83810000    3.21640000
 C                  7.05570000   -1.15990000    4.58370000
 C                  6.60380000   -2.40330000    5.13160000
 C                  6.01230000   -3.43420000    4.24870000
 C                  4.67350000   -3.81570000    4.40770000
 C                  4.06740000   -4.66140000    3.48820000
 C                  4.79580000   -5.15300000    2.39070000
 C                  4.11920000   -5.80060000    1.32030000
 C                  3.50150000   -6.20480000    0.35180000
 C                  2.76060000   -6.56960000   -0.81540000
 N                  1.42710000   -6.48360000   -0.73200000
 C                  0.70500000   -6.76370000   -1.82100000
 C                 -0.71750000   -6.63030000   -1.70700000
 C                 -1.92460000   -6.49850000   -1.62560000
 C                 -3.33190000   -6.28340000   -1.55350000
 C                 -4.12870000   -6.94380000   -0.60270000
 C                 -5.49390000   -6.68760000   -0.52830000
 C                 -6.09060000   -5.75520000   -1.38510000
 C                 -7.52860000   -5.41260000   -1.30020000
 C                 -8.52430000   -6.33960000   -1.53460000
 C                 -9.88450000   -5.95440000   -1.57290000
 C                -10.26120000   -4.64100000   -1.40170000
 C                 -9.27690000   -3.66330000   -1.12550000
 C                 -9.56420000   -2.28870000   -0.93140000
 C                 -8.56300000   -1.41500000   -0.60240000
 N                 -7.27680000   -1.83280000   -0.40720000
 C                 -6.96800000   -3.09780000   -0.62630000
 C                 -7.91220000   -4.06170000   -1.03370000
 C                 -5.29570000   -5.10990000   -2.34610000
 C                 -3.93830000   -5.37450000   -2.43820000
 C                  1.28180000   -7.15690000   -3.04070000
 C                  2.66620000   -7.25430000   -3.11530000
 C                  3.42730000   -6.95460000   -1.99180000
 C                  6.16640000   -4.85810000    2.29330000
 C                  6.76150000   -4.00250000    3.20840000
 C                  6.71350000   -2.60000000    6.49440000
 C                  7.29360000   -1.62290000    7.33350000
 C                  7.76880000   -0.43830000    6.81950000
 C                  7.65390000   -0.18060000    5.43350000
 H                  8.58050000    1.79460000    5.44950000
 H                  8.28310000    2.14190000    3.00530000
 H                  6.37420000   -1.51630000    2.51880000
 H                  4.08720000   -3.39550000    5.22800000
 H                  3.00670000   -4.90150000    3.58000000
 H                 -3.66730000   -7.65420000    0.08550000
 H                 -6.10130000   -7.19670000    0.22340000
 H                 -8.25430000   -7.37880000   -1.73440000
 H                -10.64320000   -6.71410000   -1.77340000
 H                -11.30940000   -4.34360000   -1.47060000
 H                -10.58500000   -1.91890000   -1.03980000
 H                 -8.75650000   -0.35210000   -0.46260000
 H                 -5.93470000   -3.39860000   -0.46150000
 H                 -5.75260000   -4.39350000   -3.03290000
 H                 -3.33190000   -4.87140000   -3.19260000
 H                  0.64740000   -7.37310000   -3.90090000
 H                  3.15000000   -7.55580000   -4.04670000
 H                  4.51650000   -7.00890000   -2.00940000
 H                  6.74490000   -5.25640000    1.45810000
 H                  7.81680000   -3.74260000    3.09770000
 H                  6.36560000   -3.54050000    6.92680000
 H                  7.37380000   -1.82300000    8.40420000
 H                  8.22890000    0.31120000    7.46630000
 C                  8.21390000   -0.17020000   -3.29750000
 C                  8.00210000   -0.21060000   -1.94770000
 N                  7.26710000    0.74480000   -1.31110000
 C                  6.69210000    1.71420000   -2.00310000
 C                  6.80420000    1.81520000   -3.40700000
 C                  6.16520000    2.85310000   -4.15770000
 C                  5.17860000    3.78590000   -3.56830000
 C                  4.04940000    3.30850000   -2.88320000
 C                  3.04460000    4.17620000   -2.47490000
 C                  3.14450000    5.55500000   -2.73810000
 C                  2.07560000    6.43700000   -2.41000000
 C                  1.13640000    7.17840000   -2.18200000
 C                  0.00740000    8.02550000   -1.94090000
 N                 -1.04790000    7.46420000   -1.34000000
 C                 -2.13240000    8.21370000   -1.11440000
 C                 -3.22790000    7.55760000   -0.46500000
 C                 -4.13410000    6.95850000    0.08540000
 C                 -5.15730000    6.20190000    0.72550000
 C                 -6.51880000    6.47010000    0.49780000
 C                 -7.49880000    5.68890000    1.09810000
 C                 -7.14980000    4.61760000    1.93190000
 C                 -8.17860000    3.77580000    2.57910000
 C                 -9.17210000    4.33690000    3.35910000
 C                -10.08770000    3.53260000    4.07320000
 C                -10.00790000    2.15910000    4.03420000
 C                 -9.02800000    1.53960000    3.22410000
 C                 -8.88090000    0.13370000    3.12360000
 C                 -7.95050000   -0.40120000    2.27530000
 N                 -7.17210000    0.38480000    1.47430000
 C                 -7.25610000    1.69940000    1.57020000
 C                 -8.13500000    2.35030000    2.46240000
 C                 -5.79000000    4.36700000    2.17680000
 C                 -4.80730000    5.14720000    1.58790000
 C                 -2.21190000    9.56650000   -1.48540000
 C                 -1.10930000   10.14520000   -2.10490000
 C                  0.02310000    9.37370000   -2.33990000
 C                  4.29570000    6.04040000   -3.38520000
 C                  5.29170000    5.16600000   -3.79590000
 C                  6.44760000    2.94590000   -5.50940000
 C                  7.29740000    2.02470000   -6.15750000
 C                  7.86790000    0.98360000   -5.46340000
 C                  7.63640000    0.86350000   -4.07420000
 H                  8.83140000   -0.93460000   -3.77100000
 H                  8.43010000   -1.00540000   -1.33080000
 H                  6.13710000    2.46780000   -1.44230000
 H                  3.92740000    2.23560000   -2.71720000
 H                  2.15400000    3.78870000   -1.97730000
 H                 -6.80200000    7.28860000   -0.16620000
 H                 -8.55260000    5.89640000    0.89940000
 H                 -9.22280000    5.42320000    3.45960000
 H                -10.84960000    4.01620000    4.68830000
 H                -10.69300000    1.53900000    4.61560000
 H                 -9.50970000   -0.52950000    3.71970000
 H                 -7.80760000   -1.47820000    2.18880000
 H                 -6.62280000    2.28950000    0.90810000
 H                 -5.49910000    3.55820000    2.85130000
 H                 -3.75630000    4.94590000    1.79860000
 H                 -3.11840000   10.13860000   -1.28420000
 H                 -1.13300000   11.19510000   -2.40390000
 H                  0.90640000    9.79120000   -2.82490000
 H                  4.39140000    7.10980000   -3.58120000
 H                  6.17210000    5.55560000   -4.31160000
 H                  5.96620000    3.72920000   -6.09840000
 H                  7.47870000    2.13270000   -7.22890000
 H                  8.50340000    0.25130000   -5.96500000

 1 42 1.0 65 1.0 130 1.0
 2 18 1.0 48 1.0 91 1.0 156 1.0
 3 4 1.5 8 1.5 21 1.0
 4 5 1.5 22 1.0
 5 6 1.5 15 1.0
 6 7 1.5 23 1.0
 7 8 1.5 9 1.0
 8 24 1.0
 9 10 1.5 14 1.5
 10 11 1.5 25 1.0
 11 12 1.5 26 1.0
 12 13 1.5
 13 14 1.5 27 1.0
 14 28 1.0
 15 16 1.5 20 1.5
 16 17 1.5 29 1.0
 17 18 1.5 30 1.0
 18 19 1.5
 19 20 2.0 31 1.0
 20 32 1.0
 21
 22
 23
 24
 25
 26
 27
 28
 29
 30
 31
 32
 33 34 1.5 38 1.5 51 1.0
 34 35 1.5 52 1.0
 35 36 1.5 45 1.0
 36 37 1.5 53 1.0
 37 38 1.5 39 1.0
 38 54 1.0
 39 40 1.5 44 1.5
 40 41 2.0 55 1.0
 41 42 1.5 56 1.0
 42 43 1.5
 43 44 2.0 57 1.0
 44 58 1.0
 45 46 1.5 50 1.5
 46 47 2.0 59 1.0
 47 48 1.5 60 1.0
 48 49 1.5
 49 50 2.0 61 1.0
 50 62 1.0
 51
 52
 53
 54
 55
 56
 57
 58
 59
 60
 61
 62
 63 64 2.0 104 1.5 105 1.0
 64 65 1.5 106 1.0
 65 66 1.5
 66 67 1.5 107 1.0
 67 68 1.5 104 1.5
 68 69 1.0 101 2.0
 69 70 1.5 100 1.5
 70 71 1.5 108 1.0
 71 72 1.5 109 1.0
 72 73 1.5 99 1.5
 73 74 3.0
 74 75 1.5
 75 76 1.5 98 1.5
 76 77 1.5
 77 78 1.5 96 1.5
 78 79 3.0
 79 80 1.5
 80 81 1.5 95 1.5
 81 82 1.5 110 1.0
 82 83 1.5 111 1.0
 83 84 1.0 94 1.5
 84 85 2.0 93 1.5
 85 86 1.5 112 1.0
 86 87 2.0 113 1.0
 87 88 1.5 114 1.0
 88 89 1.5 93 1.5
 89 90 2.0 115 1.0
 90 91 1.5 116 1.0
 91 92 2.0
 92 93 1.5 117 1.0
 93
 94 95 2.0 118 1.0
 95 119 1.0
 96 97 1.5 120 1.0
 97 98 1.5 121 1.0
 98 122 1.0
 99 100 1.5 123 1.0
 100 124 1.0
 101 102 1.5 125 1.0
 102 103 2.0 126 1.0
 103 104 1.5 127 1.0
 104
 105
 106
 107
 108
 109
 110
 111
 112
 113
 114
 115
 116
 117
 118
 119
 120
 121
 122
 123
 124
 125
 126
 127
 128 129 2.0 169 1.5 170 1.0
 129 130 1.5 171 1.0
 130 131 2.0
 131 132 1.5 172 1.0
 132 133 1.5 169 1.5
 133 134 1.0 166 2.0
 134 135 1.5 165 1.5
 135 136 1.5 173 1.0
 136 137 1.5 174 1.0
 137 138 1.5 164 1.5
 138 139 3.0
 139 140 1.5
 140 141 1.5 163 1.5
 141 142 1.5
 142 143 1.5 161 1.5
 143 144 3.0
 144 145 1.5
 145 146 1.5 160 1.5
 146 147 1.5 175 1.0
 147 148 1.5 176 1.0
 148 149 1.0 159 1.5
 149 150 2.0 158 1.5
 150 151 1.5 177 1.0
 151 152 2.0 178 1.0
 152 153 1.5 179 1.0
 153 154 1.5 158 1.5
 154 155 2.0 180 1.0
 155 156 1.5 181 1.0
 156 157 2.0
 157 158 1.5 182 1.0
 158
 159 160 1.5 183 1.0
 160 184 1.0
 161 162 1.5 185 1.0
 162 163 1.5 186 1.0
 163 187 1.0
 164 165 1.5 188 1.0
 165 189 1.0
 166 167 1.5 190 1.0
 167 168 2.0 191 1.0
 168 169 1.5 192 1.0
 169
 170
 171
 172
 173
 174
 175
 176
 177
 178
 179
 180
 181
 182
 183
 184
 185
 186
 187
 188
 189
 190
 191
 192

